MODEL 1
REMARK VINA RESULT:    -8.329      0.000      0.000
REMARK INTER + INTRA:         -14.656
REMARK INTER:                 -13.344
REMARK INTRA:                  -1.312
REMARK UNBOUND:                -1.214
REMARK  12 active torsions:
REMARK  status: ('A' for Active; 'I' for Inactive)
REMARK    1  A    between atoms: C_1  and  C_2 
REMARK    2  A    between atoms: C_1  and  O_32 
REMARK    3  A    between atoms: C_2  and  C_3 
REMARK    4  A    between atoms: C_3  and  C_4 
REMARK    5  A    between atoms: C_4  and  C_5 
REMARK    6  A    between atoms: C_4  and  N_8 
REMARK    7  A    between atoms: C_5  and  O_7 
REMARK       I    between atoms: N_8  and  C_9 
REMARK    8  A    between atoms: C_9  and  C_11 
REMARK    9  A    between atoms: C_16  and  N_17 
REMARK   10  A    between atoms: N_17  and  C_18 
REMARK   11  A    between atoms: C_18  and  C_19 
REMARK   12  A    between atoms: C_25  and  N_26 
ROOT
HETATM    1  C           1      13.479  74.915 -33.909  0.00  0.00     0.139 C 
HETATM    2  O           1      13.325  76.076 -33.616  0.00  0.00    -0.650 OA
ENDROOT
BRANCH   1   3
HETATM    3  C           1      14.028  73.811 -33.022  0.00  0.00     0.112 C 
BRANCH   3   4
HETATM    4  C           1      15.461  74.082 -32.531  0.00  0.00     0.046 C 
BRANCH   4   5
HETATM    5  C           1      15.553  75.055 -31.340  0.00  0.00     0.183 C 
BRANCH   5   6
HETATM    6  C           1      14.331  75.212 -30.436  0.00  0.00     0.163 C 
HETATM    7  O           1      13.939  74.368 -29.667  0.00  0.00    -0.648 OA
BRANCH   6   8
HETATM    8  O           1      13.722  76.407 -30.548  0.00  0.00    -0.775 OA
HETATM    9  H           1      13.532  76.743 -29.658  0.00  0.00     0.167 HD
ENDBRANCH   6   8
ENDBRANCH   5   6
BRANCH   5  10
HETATM   10  N           1      16.053  76.372 -31.766  0.00  0.00    -0.343 N 
HETATM   11  C           1      17.005  77.062 -31.064  0.00  0.00     0.252 C 
HETATM   12  O           1      17.498  76.559 -30.083  0.00  0.00    -0.268 OA
HETATM   13  H           1      15.634  76.802 -32.586  0.00  0.00     0.163 HD
BRANCH  11  14
HETATM   14  C           1      17.339  78.297 -31.542  0.00  0.00     0.032 A 
HETATM   15  C           1      16.822  78.731 -32.708  0.00  0.00     0.019 A 
HETATM   16  C           1      17.130  79.938 -33.205  0.00  0.00     0.030 A 
HETATM   17  C           1      17.969  80.762 -32.553  0.00  0.00     0.028 A 
HETATM   18  C           1      18.489  80.337 -31.390  0.00  0.00     0.030 A 
HETATM   19  C           1      18.180  79.127 -30.893  0.00  0.00     0.019 A 
BRANCH  17  20
HETATM   20  N           1      18.217  81.891 -33.082  0.00  0.00    -0.384 N 
HETATM   21  H           1      18.028  81.967 -34.113  0.00  0.00     0.160 HD
BRANCH  20  22
HETATM   22  C           1      18.738  83.090 -32.397  0.00  0.00     0.180 C 
BRANCH  22  23
HETATM   23  C           1      20.130  83.363 -32.911  0.00  0.00     0.070 A 
HETATM   24  C           1      20.371  83.976 -34.080  0.00  0.00     0.147 A 
HETATM   25  N           1      21.543  84.201 -34.494  0.00  0.00    -0.237 NA
HETATM   26  C           1      22.517  83.829 -33.770  0.00  0.00     0.202 A 
HETATM   27  C           1      22.285  83.209 -32.590  0.00  0.00     0.174 A 
HETATM   28  N           1      23.681  84.071 -34.213  0.00  0.00    -0.043 NA
HETATM   29  N           1      21.100  82.991 -32.192  0.00  0.00    -0.241 NA
HETATM   30  C           1      23.340  82.815 -31.825  0.00  0.00     0.292 A 
HETATM   31  O           1      23.301  82.252 -30.757  0.00  0.00    -0.265 OA
HETATM   32  N           1      24.538  83.116 -32.379  0.00  0.00    -0.152 N 
HETATM   33  C           1      24.709  83.736 -33.558  0.00  0.00     0.703 A 
HETATM   34  H           1      25.383  82.868 -31.894  0.00  0.00     0.187 HD
BRANCH  33  35
HETATM   35  N           1      25.902  83.940 -33.929  0.00  0.00    -0.233 N 
HETATM   36  H           1      26.129  84.652 -34.666  0.00  0.00     0.174 HD
HETATM   37  H           1      26.686  83.392 -33.498  0.00  0.00     0.174 HD
ENDBRANCH  33  35
ENDBRANCH  22  23
ENDBRANCH  20  22
ENDBRANCH  17  20
ENDBRANCH  11  14
ENDBRANCH   5  10
ENDBRANCH   4   5
ENDBRANCH   3   4
ENDBRANCH   1   3
BRANCH   1  38
HETATM   38  O           1      13.165  74.450 -35.135  0.00  0.00    -0.776 OA
HETATM   39  H           1      12.302  74.815 -35.388  0.00  0.00     0.167 HD
ENDBRANCH   1  38
TORSDOF 12
ENDMDL
MODEL 2
REMARK VINA RESULT:    -8.200      1.634      2.477
REMARK INTER + INTRA:         -14.448
REMARK INTER:                 -13.357
REMARK INTRA:                  -1.091
REMARK UNBOUND:                -1.214
REMARK  12 active torsions:
REMARK  status: ('A' for Active; 'I' for Inactive)
REMARK    1  A    between atoms: C_1  and  C_2 
REMARK    2  A    between atoms: C_1  and  O_32 
REMARK    3  A    between atoms: C_2  and  C_3 
REMARK    4  A    between atoms: C_3  and  C_4 
REMARK    5  A    between atoms: C_4  and  C_5 
REMARK    6  A    between atoms: C_4  and  N_8 
REMARK    7  A    between atoms: C_5  and  O_7 
REMARK       I    between atoms: N_8  and  C_9 
REMARK    8  A    between atoms: C_9  and  C_11 
REMARK    9  A    between atoms: C_16  and  N_17 
REMARK   10  A    between atoms: N_17  and  C_18 
REMARK   11  A    between atoms: C_18  and  C_19 
REMARK   12  A    between atoms: C_25  and  N_26 
ROOT
HETATM    1  C           1      16.625  72.714 -31.205  0.00  0.00     0.139 C 
HETATM    2  O           1      16.813  73.329 -30.183  0.00  0.00    -0.650 OA
ENDROOT
BRANCH   1   3
HETATM    3  C           1      15.354  72.682 -32.035  0.00  0.00     0.112 C 
BRANCH   3   4
HETATM    4  C           1      15.332  73.740 -33.152  0.00  0.00     0.046 C 
BRANCH   4   5
HETATM    5  C           1      14.622  75.054 -32.772  0.00  0.00     0.183 C 
BRANCH   5   6
HETATM    6  C           1      13.485  75.547 -33.663  0.00  0.00     0.163 C 
HETATM    7  O           1      12.898  74.859 -34.464  0.00  0.00    -0.648 OA
BRANCH   6   8
HETATM    8  O           1      13.159  76.838 -33.467  0.00  0.00    -0.775 OA
HETATM    9  H           1      12.237  76.884 -33.168  0.00  0.00     0.167 HD
ENDBRANCH   6   8
ENDBRANCH   5   6
BRANCH   5  10
HETATM   10  N           1      15.594  76.133 -32.530  0.00  0.00    -0.343 N 
HETATM   11  C           1      15.789  76.685 -31.293  0.00  0.00     0.252 C 
HETATM   12  O           1      15.182  76.246 -30.344  0.00  0.00    -0.268 OA
HETATM   13  H           1      16.099  76.511 -33.326  0.00  0.00     0.163 HD
BRANCH  11  14
HETATM   14  C           1      16.681  77.716 -31.219  0.00  0.00     0.032 A 
HETATM   15  C           1      16.468  78.844 -31.925  0.00  0.00     0.019 A 
HETATM   16  C           1      17.326  79.875 -31.876  0.00  0.00     0.030 A 
HETATM   17  C           1      18.433  79.818 -31.116  0.00  0.00     0.028 A 
HETATM   18  C           1      18.654  78.698 -30.409  0.00  0.00     0.030 A 
HETATM   19  C           1      17.794  77.666 -30.459  0.00  0.00     0.019 A 
BRANCH  17  20
HETATM   20  N           1      19.202  80.831 -31.117  0.00  0.00    -0.384 N 
HETATM   21  H           1      19.968  80.826 -30.399  0.00  0.00     0.160 HD
BRANCH  20  22
HETATM   22  C           1      19.123  81.997 -32.019  0.00  0.00     0.180 C 
BRANCH  22  23
HETATM   23  C           1      20.497  82.250 -32.587  0.00  0.00     0.070 A 
HETATM   24  C           1      20.935  81.684 -33.722  0.00  0.00     0.147 A 
HETATM   25  N           1      22.087  81.910 -34.187  0.00  0.00    -0.237 NA
HETATM   26  C           1      22.846  82.703 -33.550  0.00  0.00     0.202 A 
HETATM   27  C           1      22.414  83.279 -32.405  0.00  0.00     0.174 A 
HETATM   28  N           1      23.997  82.910 -34.045  0.00  0.00    -0.043 NA
HETATM   29  N           1      21.254  83.038 -31.952  0.00  0.00    -0.241 NA
HETATM   30  C           1      23.241  84.126 -31.731  0.00  0.00     0.292 A 
HETATM   31  O           1      23.008  84.714 -30.703  0.00  0.00    -0.265 OA
HETATM   32  N           1      24.443  84.284 -32.335  0.00  0.00    -0.152 N 
HETATM   33  C           1      24.818  83.685 -33.478  0.00  0.00     0.703 A 
HETATM   34  H           1      25.128  84.891 -31.920  0.00  0.00     0.187 HD
BRANCH  33  35
HETATM   35  N           1      25.981  83.944 -33.904  0.00  0.00    -0.233 N 
HETATM   36  H           1      26.128  84.454 -34.809  0.00  0.00     0.174 HD
HETATM   37  H           1      26.821  83.648 -33.349  0.00  0.00     0.174 HD
ENDBRANCH  33  35
ENDBRANCH  22  23
ENDBRANCH  20  22
ENDBRANCH  17  20
ENDBRANCH  11  14
ENDBRANCH   5  10
ENDBRANCH   4   5
ENDBRANCH   3   4
ENDBRANCH   1   3
BRANCH   1  38
HETATM   38  O           1      17.585  71.937 -31.746  0.00  0.00    -0.776 OA
HETATM   39  H           1      17.314  71.699 -32.647  0.00  0.00     0.167 HD
ENDBRANCH   1  38
TORSDOF 12
ENDMDL
MODEL 3
REMARK VINA RESULT:    -8.159      1.550      1.912
REMARK INTER + INTRA:         -14.382
REMARK INTER:                 -13.544
REMARK INTRA:                  -0.838
REMARK UNBOUND:                -1.214
REMARK  12 active torsions:
REMARK  status: ('A' for Active; 'I' for Inactive)
REMARK    1  A    between atoms: C_1  and  C_2 
REMARK    2  A    between atoms: C_1  and  O_32 
REMARK    3  A    between atoms: C_2  and  C_3 
REMARK    4  A    between atoms: C_3  and  C_4 
REMARK    5  A    between atoms: C_4  and  C_5 
REMARK    6  A    between atoms: C_4  and  N_8 
REMARK    7  A    between atoms: C_5  and  O_7 
REMARK       I    between atoms: N_8  and  C_9 
REMARK    8  A    between atoms: C_9  and  C_11 
REMARK    9  A    between atoms: C_16  and  N_17 
REMARK   10  A    between atoms: N_17  and  C_18 
REMARK   11  A    between atoms: C_18  and  C_19 
REMARK   12  A    between atoms: C_25  and  N_26 
ROOT
HETATM    1  C           1      13.081  73.794 -34.033  0.00  0.00     0.139 C 
HETATM    2  O           1      12.189  73.123 -33.572  0.00  0.00    -0.650 OA
ENDROOT
BRANCH   1   3
HETATM    3  C           1      14.310  74.311 -33.304  0.00  0.00     0.112 C 
BRANCH   3   4
HETATM    4  C           1      14.302  75.837 -33.108  0.00  0.00     0.046 C 
BRANCH   4   5
HETATM    5  C           1      15.253  76.343 -32.006  0.00  0.00     0.183 C 
BRANCH   5   6
HETATM    6  C           1      14.795  76.241 -30.552  0.00  0.00     0.163 C 
HETATM    7  O           1      15.262  75.475 -29.742  0.00  0.00    -0.648 OA
BRANCH   6   8
HETATM    8  O           1      13.822  77.111 -30.225  0.00  0.00    -0.775 OA
HETATM    9  H           1      13.499  77.535 -31.037  0.00  0.00     0.167 HD
ENDBRANCH   6   8
ENDBRANCH   5   6
BRANCH   5  10
HETATM   10  N           1      15.735  77.702 -32.301  0.00  0.00    -0.343 N 
HETATM   11  C           1      16.936  78.174 -31.845  0.00  0.00     0.252 C 
HETATM   12  O           1      17.661  77.440 -31.216  0.00  0.00    -0.268 OA
HETATM   13  H           1      15.124  78.325 -32.823  0.00  0.00     0.163 HD
BRANCH  11  14
HETATM   14  C           1      17.236  79.471 -32.147  0.00  0.00     0.032 A 
HETATM   15  C           1      18.052  80.179 -31.341  0.00  0.00     0.019 A 
HETATM   16  C           1      18.366  81.456 -31.608  0.00  0.00     0.030 A 
HETATM   17  C           1      17.875  82.077 -32.695  0.00  0.00     0.028 A 
HETATM   18  C           1      17.061  81.379 -33.503  0.00  0.00     0.030 A 
HETATM   19  C           1      16.747  80.100 -33.234  0.00  0.00     0.019 A 
BRANCH  17  20
HETATM   20  N           1      18.214  83.287 -32.886  0.00  0.00    -0.384 N 
HETATM   21  H           1      18.163  83.916 -32.046  0.00  0.00     0.160 HD
BRANCH  20  22
HETATM   22  C           1      18.668  83.885 -34.157  0.00  0.00     0.180 C 
BRANCH  22  23
HETATM   23  C           1      20.163  83.711 -34.256  0.00  0.00     0.070 A 
HETATM   24  C           1      20.739  82.706 -34.933  0.00  0.00     0.147 A 
HETATM   25  N           1      21.993  82.577 -35.010  0.00  0.00    -0.237 NA
HETATM   26  C           1      22.722  83.434 -34.423  0.00  0.00     0.202 A 
HETATM   27  C           1      22.151  84.450 -33.737  0.00  0.00     0.174 A 
HETATM   28  N           1      23.978  83.277 -34.520  0.00  0.00    -0.043 NA
HETATM   29  N           1      20.889  84.563 -33.669  0.00  0.00    -0.241 NA
HETATM   30  C           1      22.946  85.362 -33.110  0.00  0.00     0.292 A 
HETATM   31  O           1      22.594  86.317 -32.460  0.00  0.00    -0.265 OA
HETATM   32  N           1      24.266  85.111 -33.271  0.00  0.00    -0.152 N 
HETATM   33  C           1      24.779  84.083 -33.967  0.00  0.00     0.703 A 
HETATM   34  H           1      24.941  85.726 -32.849  0.00  0.00     0.187 HD
BRANCH  33  35
HETATM   35  N           1      26.040  83.997 -34.016  0.00  0.00    -0.233 N 
HETATM   36  H           1      26.541  83.849 -34.926  0.00  0.00     0.174 HD
HETATM   37  H           1      26.605  84.074 -33.135  0.00  0.00     0.174 HD
ENDBRANCH  33  35
ENDBRANCH  22  23
ENDBRANCH  20  22
ENDBRANCH  17  20
ENDBRANCH  11  14
ENDBRANCH   5  10
ENDBRANCH   4   5
ENDBRANCH   3   4
ENDBRANCH   1   3
BRANCH   1  38
HETATM   38  O           1      13.076  74.185 -35.323  0.00  0.00    -0.776 OA
HETATM   39  H           1      12.206  73.979 -35.702  0.00  0.00     0.167 HD
ENDBRANCH   1  38
TORSDOF 12
ENDMDL
MODEL 4
REMARK VINA RESULT:    -8.157      1.463      1.863
REMARK INTER + INTRA:         -14.379
REMARK INTER:                 -13.491
REMARK INTRA:                  -0.888
REMARK UNBOUND:                -1.214
REMARK  12 active torsions:
REMARK  status: ('A' for Active; 'I' for Inactive)
REMARK    1  A    between atoms: C_1  and  C_2 
REMARK    2  A    between atoms: C_1  and  O_32 
REMARK    3  A    between atoms: C_2  and  C_3 
REMARK    4  A    between atoms: C_3  and  C_4 
REMARK    5  A    between atoms: C_4  and  C_5 
REMARK    6  A    between atoms: C_4  and  N_8 
REMARK    7  A    between atoms: C_5  and  O_7 
REMARK       I    between atoms: N_8  and  C_9 
REMARK    8  A    between atoms: C_9  and  C_11 
REMARK    9  A    between atoms: C_16  and  N_17 
REMARK   10  A    between atoms: N_17  and  C_18 
REMARK   11  A    between atoms: C_18  and  C_19 
REMARK   12  A    between atoms: C_25  and  N_26 
ROOT
HETATM    1  C           1      13.004  73.731 -33.927  0.00  0.00     0.139 C 
HETATM    2  O           1      12.083  72.999 -33.654  0.00  0.00    -0.650 OA
ENDROOT
BRANCH   1   3
HETATM    3  C           1      14.100  74.214 -32.994  0.00  0.00     0.112 C 
BRANCH   3   4
HETATM    4  C           1      14.368  75.725 -33.103  0.00  0.00     0.046 C 
BRANCH   4   5
HETATM    5  C           1      15.253  76.299 -31.980  0.00  0.00     0.183 C 
BRANCH   5   6
HETATM    6  C           1      14.737  76.229 -30.544  0.00  0.00     0.163 C 
HETATM    7  O           1      15.123  75.436 -29.718  0.00  0.00    -0.648 OA
BRANCH   6   8
HETATM    8  O           1      13.810  77.161 -30.253  0.00  0.00    -0.775 OA
HETATM    9  H           1      13.481  77.542 -31.083  0.00  0.00     0.167 HD
ENDBRANCH   6   8
ENDBRANCH   5   6
BRANCH   5  10
HETATM   10  N           1      15.703  77.663 -32.301  0.00  0.00    -0.343 N 
HETATM   11  C           1      16.865  78.191 -31.806  0.00  0.00     0.252 C 
HETATM   12  O           1      17.582  77.505 -31.117  0.00  0.00    -0.268 OA
HETATM   13  H           1      15.098  78.246 -32.873  0.00  0.00     0.163 HD
BRANCH  11  14
HETATM   14  C           1      17.136  79.488 -32.140  0.00  0.00     0.032 A 
HETATM   15  C           1      18.037  80.192 -31.428  0.00  0.00     0.019 A 
HETATM   16  C           1      18.326  81.468 -31.729  0.00  0.00     0.030 A 
HETATM   17  C           1      17.723  82.090 -32.757  0.00  0.00     0.028 A 
HETATM   18  C           1      16.823  81.395 -33.471  0.00  0.00     0.030 A 
HETATM   19  C           1      16.535  80.118 -33.169  0.00  0.00     0.019 A 
BRANCH  17  20
HETATM   20  N           1      18.044  83.299 -32.985  0.00  0.00    -0.384 N 
HETATM   21  H           1      17.660  84.010 -32.313  0.00  0.00     0.160 HD
BRANCH  20  22
HETATM   22  C           1      18.893  83.793 -34.087  0.00  0.00     0.180 C 
BRANCH  22  23
HETATM   23  C           1      20.305  83.926 -33.574  0.00  0.00     0.070 A 
HETATM   24  C           1      20.703  84.929 -32.779  0.00  0.00     0.147 A 
HETATM   25  N           1      21.889  85.024 -32.354  0.00  0.00    -0.237 NA
HETATM   26  C           1      22.722  84.131 -32.699  0.00  0.00     0.202 A 
HETATM   27  C           1      22.331  83.115 -33.502  0.00  0.00     0.174 A 
HETATM   28  N           1      23.905  84.254 -32.255  0.00  0.00    -0.043 NA
HETATM   29  N           1      21.136  83.038 -33.919  0.00  0.00    -0.241 NA
HETATM   30  C           1      23.237  82.165 -33.865  0.00  0.00     0.292 A 
HETATM   31  O           1      23.049  81.203 -34.571  0.00  0.00    -0.265 OA
HETATM   32  N           1      24.468  82.380 -33.343  0.00  0.00    -0.152 N 
HETATM   33  C           1      24.800  83.410 -32.547  0.00  0.00     0.703 A 
HETATM   34  H           1      25.212  81.735 -33.548  0.00  0.00     0.187 HD
BRANCH  33  35
HETATM   35  N           1      25.999  83.460 -32.147  0.00  0.00    -0.233 N 
HETATM   36  H           1      26.239  83.809 -31.187  0.00  0.00     0.174 HD
HETATM   37  H           1      26.777  83.149 -32.780  0.00  0.00     0.174 HD
ENDBRANCH  33  35
ENDBRANCH  22  23
ENDBRANCH  20  22
ENDBRANCH  17  20
ENDBRANCH  11  14
ENDBRANCH   5  10
ENDBRANCH   4   5
ENDBRANCH   3   4
ENDBRANCH   1   3
BRANCH   1  38
HETATM   38  O           1      13.161  74.232 -35.169  0.00  0.00    -0.776 OA
HETATM   39  H           1      12.337  74.090 -35.663  0.00  0.00     0.167 HD
ENDBRANCH   1  38
TORSDOF 12
ENDMDL
MODEL 5
REMARK VINA RESULT:    -8.137      1.140      2.222
REMARK INTER + INTRA:         -14.345
REMARK INTER:                 -13.086
REMARK INTRA:                  -1.260
REMARK UNBOUND:                -1.214
REMARK  12 active torsions:
REMARK  status: ('A' for Active; 'I' for Inactive)
REMARK    1  A    between atoms: C_1  and  C_2 
REMARK    2  A    between atoms: C_1  and  O_32 
REMARK    3  A    between atoms: C_2  and  C_3 
REMARK    4  A    between atoms: C_3  and  C_4 
REMARK    5  A    between atoms: C_4  and  C_5 
REMARK    6  A    between atoms: C_4  and  N_8 
REMARK    7  A    between atoms: C_5  and  O_7 
REMARK       I    between atoms: N_8  and  C_9 
REMARK    8  A    between atoms: C_9  and  C_11 
REMARK    9  A    between atoms: C_16  and  N_17 
REMARK   10  A    between atoms: N_17  and  C_18 
REMARK   11  A    between atoms: C_18  and  C_19 
REMARK   12  A    between atoms: C_25  and  N_26 
ROOT
HETATM    1  C           1      15.105  74.121 -29.972  0.00  0.00     0.139 C 
HETATM    2  O           1      14.008  73.616 -29.971  0.00  0.00    -0.650 OA
ENDROOT
BRANCH   1   3
HETATM    3  C           1      16.206  73.919 -30.999  0.00  0.00     0.112 C 
BRANCH   3   4
HETATM    4  C           1      15.832  74.434 -32.400  0.00  0.00     0.046 C 
BRANCH   4   5
HETATM    5  C           1      14.915  75.672 -32.400  0.00  0.00     0.183 C 
BRANCH   5   6
HETATM    6  C           1      13.608  75.605 -33.187  0.00  0.00     0.163 C 
HETATM    7  O           1      13.047  74.579 -33.492  0.00  0.00    -0.648 OA
BRANCH   6   8
HETATM    8  O           1      13.100  76.811 -33.503  0.00  0.00    -0.775 OA
HETATM    9  H           1      12.648  76.743 -34.359  0.00  0.00     0.167 HD
ENDBRANCH   6   8
ENDBRANCH   5   6
BRANCH   5  10
HETATM   10  N           1      15.665  76.890 -32.748  0.00  0.00    -0.343 N 
HETATM   11  C           1      16.240  77.696 -31.803  0.00  0.00     0.252 C 
HETATM   12  O           1      16.180  77.381 -30.638  0.00  0.00    -0.268 OA
HETATM   13  H           1      15.710  77.163 -33.726  0.00  0.00     0.163 HD
BRANCH  11  14
HETATM   14  C           1      16.860  78.824 -32.260  0.00  0.00     0.032 A 
HETATM   15  C           1      16.666  80.000 -31.632  0.00  0.00     0.019 A 
HETATM   16  C           1      17.259  81.127 -32.056  0.00  0.00     0.030 A 
HETATM   17  C           1      18.072  81.121 -33.126  0.00  0.00     0.028 A 
HETATM   18  C           1      18.272  79.952 -33.757  0.00  0.00     0.030 A 
HETATM   19  C           1      17.677  78.825 -33.332  0.00  0.00     0.019 A 
BRANCH  17  20
HETATM   20  N           1      18.600  82.224 -33.472  0.00  0.00    -0.384 N 
HETATM   21  H           1      18.517  82.474 -34.489  0.00  0.00     0.160 HD
BRANCH  20  22
HETATM   22  C           1      19.309  83.176 -32.594  0.00  0.00     0.180 C 
BRANCH  22  23
HETATM   23  C           1      20.660  83.464 -33.200  0.00  0.00     0.070 A 
HETATM   24  C           1      20.818  83.946 -34.441  0.00  0.00     0.147 A 
HETATM   25  N           1      21.958  84.185 -34.932  0.00  0.00    -0.237 NA
HETATM   26  C           1      22.979  83.958 -34.215  0.00  0.00     0.202 A 
HETATM   27  C           1      22.831  83.471 -32.961  0.00  0.00     0.174 A 
HETATM   28  N           1      24.109  84.210 -34.736  0.00  0.00    -0.043 NA
HETATM   29  N           1      21.679  83.235 -32.486  0.00  0.00    -0.241 NA
HETATM   30  C           1      23.938  83.230 -32.204  0.00  0.00     0.292 A 
HETATM   31  O           1      23.975  82.797 -31.077  0.00  0.00    -0.265 OA
HETATM   32  N           1      25.092  83.530 -32.844  0.00  0.00    -0.152 N 
HETATM   33  C           1      25.180  84.014 -34.094  0.00  0.00     0.703 A 
HETATM   34  H           1      25.970  83.390 -32.373  0.00  0.00     0.187 HD
BRANCH  33  35
HETATM   35  N           1      26.342  84.239 -34.541  0.00  0.00    -0.233 N 
HETATM   36  H           1      26.514  84.382 -35.566  0.00  0.00     0.174 HD
HETATM   37  H           1      27.157  84.286 -33.881  0.00  0.00     0.174 HD
ENDBRANCH  33  35
ENDBRANCH  22  23
ENDBRANCH  20  22
ENDBRANCH  17  20
ENDBRANCH  11  14
ENDBRANCH   5  10
ENDBRANCH   4   5
ENDBRANCH   3   4
ENDBRANCH   1   3
BRANCH   1  38
HETATM   38  O           1      15.494  74.967 -28.996  0.00  0.00    -0.776 OA
HETATM   39  H           1      16.328  74.639 -28.622  0.00  0.00     0.167 HD
ENDBRANCH   1  38
TORSDOF 12
ENDMDL
MODEL 6
REMARK VINA RESULT:    -7.977      3.146     10.871
REMARK INTER + INTRA:         -14.088
REMARK INTER:                 -13.037
REMARK INTRA:                  -1.051
REMARK UNBOUND:                -1.214
REMARK  12 active torsions:
REMARK  status: ('A' for Active; 'I' for Inactive)
REMARK    1  A    between atoms: C_1  and  C_2 
REMARK    2  A    between atoms: C_1  and  O_32 
REMARK    3  A    between atoms: C_2  and  C_3 
REMARK    4  A    between atoms: C_3  and  C_4 
REMARK    5  A    between atoms: C_4  and  C_5 
REMARK    6  A    between atoms: C_4  and  N_8 
REMARK    7  A    between atoms: C_5  and  O_7 
REMARK       I    between atoms: N_8  and  C_9 
REMARK    8  A    between atoms: C_9  and  C_11 
REMARK    9  A    between atoms: C_16  and  N_17 
REMARK   10  A    between atoms: N_17  and  C_18 
REMARK   11  A    between atoms: C_18  and  C_19 
REMARK   12  A    between atoms: C_25  and  N_26 
ROOT
HETATM    1  C           1      23.138  85.870 -31.475  0.00  0.00     0.139 C 
HETATM    2  O           1      23.930  84.981 -31.681  0.00  0.00    -0.650 OA
ENDROOT
BRANCH   1   3
HETATM    3  C           1      22.444  86.738 -32.510  0.00  0.00     0.112 C 
BRANCH   3   4
HETATM    4  C           1      23.235  86.865 -33.824  0.00  0.00     0.046 C 
BRANCH   4   5
HETATM    5  C           1      22.443  86.471 -35.086  0.00  0.00     0.183 C 
BRANCH   5   6
HETATM    6  C           1      21.629  87.550 -35.797  0.00  0.00     0.163 C 
HETATM    7  O           1      21.565  88.703 -35.439  0.00  0.00    -0.648 OA
BRANCH   6   8
HETATM    8  O           1      20.989  87.113 -36.897  0.00  0.00    -0.775 OA
HETATM    9  H           1      20.591  87.875 -37.348  0.00  0.00     0.167 HD
ENDBRANCH   6   8
ENDBRANCH   5   6
BRANCH   5  10
HETATM   10  N           1      21.617  85.276 -34.845  0.00  0.00    -0.343 N 
HETATM   11  C           1      22.085  84.005 -35.044  0.00  0.00     0.252 C 
HETATM   12  O           1      23.233  83.842 -35.383  0.00  0.00    -0.268 OA
HETATM   13  H           1      20.649  85.410 -34.567  0.00  0.00     0.163 HD
BRANCH  11  14
HETATM   14  C           1      21.196  82.989 -34.834  0.00  0.00     0.032 A 
HETATM   15  C           1      21.493  81.740 -35.241  0.00  0.00     0.019 A 
HETATM   16  C           1      20.642  80.720 -35.052  0.00  0.00     0.030 A 
HETATM   17  C           1      19.458  80.910 -34.444  0.00  0.00     0.028 A 
HETATM   18  C           1      19.154  82.153 -34.035  0.00  0.00     0.030 A 
HETATM   19  C           1      20.007  83.173 -34.226  0.00  0.00     0.019 A 
BRANCH  17  20
HETATM   20  N           1      18.701  79.899 -34.298  0.00  0.00    -0.384 N 
HETATM   21  H           1      19.118  78.972 -34.562  0.00  0.00     0.160 HD
BRANCH  20  22
HETATM   22  C           1      17.312  79.903 -33.798  0.00  0.00     0.180 C 
BRANCH  22  23
HETATM   23  C           1      17.200  78.874 -32.701  0.00  0.00     0.070 A 
HETATM   24  C           1      18.124  78.727 -31.739  0.00  0.00     0.147 A 
HETATM   25  N           1      18.014  77.864 -30.824  0.00  0.00    -0.237 NA
HETATM   26  C           1      16.988  77.117 -30.825  0.00  0.00     0.202 A 
HETATM   27  C           1      16.051  77.256 -31.791  0.00  0.00     0.174 A 
HETATM   28  N           1      16.906  76.260 -29.892  0.00  0.00    -0.043 NA
HETATM   29  N           1      16.180  78.128 -32.703  0.00  0.00    -0.241 NA
HETATM   30  C           1      14.956  76.445 -31.780  0.00  0.00     0.292 A 
HETATM   31  O           1      14.039  76.442 -32.566  0.00  0.00    -0.265 OA
HETATM   32  N           1      14.957  75.568 -30.749  0.00  0.00    -0.152 N 
HETATM   33  C           1      15.918  75.475 -29.815  0.00  0.00     0.703 A 
HETATM   34  H           1      14.192  74.923 -30.648  0.00  0.00     0.187 HD
BRANCH  33  35
HETATM   35  N           1      15.762  74.595 -28.919  0.00  0.00    -0.233 N 
HETATM   36  H           1      15.850  73.573 -29.137  0.00  0.00     0.174 HD
HETATM   37  H           1      15.539  74.884 -27.934  0.00  0.00     0.174 HD
ENDBRANCH  33  35
ENDBRANCH  22  23
ENDBRANCH  20  22
ENDBRANCH  17  20
ENDBRANCH  11  14
ENDBRANCH   5  10
ENDBRANCH   4   5
ENDBRANCH   3   4
ENDBRANCH   1   3
BRANCH   1  38
HETATM   38  O           1      22.768  86.209 -30.223  0.00  0.00    -0.776 OA
HETATM   39  H           1      22.965  87.150 -30.091  0.00  0.00     0.167 HD
ENDBRANCH   1  38
TORSDOF 12
ENDMDL
MODEL 7
REMARK VINA RESULT:    -7.942      2.645     11.140
REMARK INTER + INTRA:         -14.032
REMARK INTER:                 -12.936
REMARK INTRA:                  -1.096
REMARK UNBOUND:                -1.214
REMARK  12 active torsions:
REMARK  status: ('A' for Active; 'I' for Inactive)
REMARK    1  A    between atoms: C_1  and  C_2 
REMARK    2  A    between atoms: C_1  and  O_32 
REMARK    3  A    between atoms: C_2  and  C_3 
REMARK    4  A    between atoms: C_3  and  C_4 
REMARK    5  A    between atoms: C_4  and  C_5 
REMARK    6  A    between atoms: C_4  and  N_8 
REMARK    7  A    between atoms: C_5  and  O_7 
REMARK       I    between atoms: N_8  and  C_9 
REMARK    8  A    between atoms: C_9  and  C_11 
REMARK    9  A    between atoms: C_16  and  N_17 
REMARK   10  A    between atoms: N_17  and  C_18 
REMARK   11  A    between atoms: C_18  and  C_19 
REMARK   12  A    between atoms: C_25  and  N_26 
ROOT
HETATM    1  C           1      25.022  83.891 -33.627  0.00  0.00     0.139 C 
HETATM    2  O           1      24.825  83.439 -32.524  0.00  0.00    -0.650 OA
ENDROOT
BRANCH   1   3
HETATM    3  C           1      23.987  84.449 -34.588  0.00  0.00     0.112 C 
BRANCH   3   4
HETATM    4  C           1      22.816  83.485 -34.846  0.00  0.00     0.046 C 
BRANCH   4   5
HETATM    5  C           1      21.466  83.953 -34.269  0.00  0.00     0.183 C 
BRANCH   5   6
HETATM    6  C           1      21.479  84.938 -33.101  0.00  0.00     0.163 C 
HETATM    7  O           1      21.122  86.090 -33.176  0.00  0.00    -0.648 OA
BRANCH   6   8
HETATM    8  O           1      21.909  84.403 -31.943  0.00  0.00    -0.775 OA
HETATM    9  H           1      21.478  83.542 -31.820  0.00  0.00     0.167 HD
ENDBRANCH   6   8
ENDBRANCH   5   6
BRANCH   5  10
HETATM   10  N           1      20.590  82.809 -33.969  0.00  0.00    -0.343 N 
HETATM   11  C           1      19.284  82.753 -34.376  0.00  0.00     0.252 C 
HETATM   12  O           1      18.835  83.649 -35.052  0.00  0.00    -0.268 OA
HETATM   13  H           1      20.961  82.058 -33.394  0.00  0.00     0.163 HD
BRANCH  11  14
HETATM   14  C           1      18.569  81.658 -33.983  0.00  0.00     0.032 A 
HETATM   15  C           1      18.964  80.426 -34.356  0.00  0.00     0.019 A 
HETATM   16  C           1      18.284  79.329 -33.989  0.00  0.00     0.030 A 
HETATM   17  C           1      17.178  79.424 -33.230  0.00  0.00     0.028 A 
HETATM   18  C           1      16.776  80.649 -32.854  0.00  0.00     0.030 A 
HETATM   19  C           1      17.459  81.746 -33.223  0.00  0.00     0.019 A 
BRANCH  17  20
HETATM   20  N           1      16.582  78.345 -32.919  0.00  0.00    -0.384 N 
HETATM   21  H           1      16.344  77.705 -33.718  0.00  0.00     0.160 HD
BRANCH  20  22
HETATM   22  C           1      16.199  77.909 -31.562  0.00  0.00     0.180 C 
BRANCH  22  23
HETATM   23  C           1      15.675  76.497 -31.648  0.00  0.00     0.070 A 
HETATM   24  C           1      16.080  75.515 -30.828  0.00  0.00     0.147 A 
HETATM   25  N           1      15.628  74.338 -30.910  0.00  0.00    -0.237 NA
HETATM   26  C           1      14.761  74.090 -31.803  0.00  0.00     0.202 A 
HETATM   27  C           1      14.347  75.072 -32.636  0.00  0.00     0.174 A 
HETATM   28  N           1      14.326  72.899 -31.859  0.00  0.00    -0.043 NA
HETATM   29  N           1      14.814  76.248 -32.539  0.00  0.00    -0.241 NA
HETATM   30  C           1      13.418  74.790 -33.591  0.00  0.00     0.292 A 
HETATM   31  O           1      12.950  75.549 -34.406  0.00  0.00    -0.265 OA
HETATM   32  N           1      13.015  73.498 -33.571  0.00  0.00    -0.152 N 
HETATM   33  C           1      13.461  72.562 -32.717  0.00  0.00     0.703 A 
HETATM   34  H           1      12.328  73.183 -34.236  0.00  0.00     0.187 HD
BRANCH  33  35
HETATM   35  N           1      12.978  71.399 -32.839  0.00  0.00    -0.233 N 
HETATM   36  H           1      12.581  70.885 -32.014  0.00  0.00     0.174 HD
HETATM   37  H           1      12.969  70.930 -33.778  0.00  0.00     0.174 HD
ENDBRANCH  33  35
ENDBRANCH  22  23
ENDBRANCH  20  22
ENDBRANCH  17  20
ENDBRANCH  11  14
ENDBRANCH   5  10
ENDBRANCH   4   5
ENDBRANCH   3   4
ENDBRANCH   1   3
BRANCH   1  38
HETATM   38  O           1      26.262  83.944 -34.155  0.00  0.00    -0.776 OA
HETATM   39  H           1      26.592  84.854 -34.070  0.00  0.00     0.167 HD
ENDBRANCH   1  38
TORSDOF 12
ENDMDL
MODEL 8
REMARK VINA RESULT:    -7.938      2.892     10.956
REMARK INTER + INTRA:         -14.025
REMARK INTER:                 -12.748
REMARK INTRA:                  -1.277
REMARK UNBOUND:                -1.214
REMARK  12 active torsions:
REMARK  status: ('A' for Active; 'I' for Inactive)
REMARK    1  A    between atoms: C_1  and  C_2 
REMARK    2  A    between atoms: C_1  and  O_32 
REMARK    3  A    between atoms: C_2  and  C_3 
REMARK    4  A    between atoms: C_3  and  C_4 
REMARK    5  A    between atoms: C_4  and  C_5 
REMARK    6  A    between atoms: C_4  and  N_8 
REMARK    7  A    between atoms: C_5  and  O_7 
REMARK       I    between atoms: N_8  and  C_9 
REMARK    8  A    between atoms: C_9  and  C_11 
REMARK    9  A    between atoms: C_16  and  N_17 
REMARK   10  A    between atoms: N_17  and  C_18 
REMARK   11  A    between atoms: C_18  and  C_19 
REMARK   12  A    between atoms: C_25  and  N_26 
ROOT
HETATM    1  C           1      23.796  82.793 -31.754  0.00  0.00     0.139 C 
HETATM    2  O           1      24.367  83.832 -31.983  0.00  0.00    -0.650 OA
ENDROOT
BRANCH   1   3
HETATM    3  C           1      23.104  82.393 -30.463  0.00  0.00     0.112 C 
BRANCH   3   4
HETATM    4  C           1      22.002  83.377 -30.034  0.00  0.00     0.046 C 
BRANCH   4   5
HETATM    5  C           1      20.971  83.699 -31.132  0.00  0.00     0.183 C 
BRANCH   5   6
HETATM    6  C           1      20.249  85.044 -31.078  0.00  0.00     0.163 C 
HETATM    7  O           1      19.487  85.444 -31.925  0.00  0.00    -0.648 OA
BRANCH   6   8
HETATM    8  O           1      20.516  85.760 -29.970  0.00  0.00    -0.775 OA
HETATM    9  H           1      19.997  86.579 -29.997  0.00  0.00     0.167 HD
ENDBRANCH   6   8
ENDBRANCH   5   6
BRANCH   5  10
HETATM   10  N           1      20.004  82.600 -31.292  0.00  0.00    -0.343 N 
HETATM   11  C           1      19.926  81.846 -32.432  0.00  0.00     0.252 C 
HETATM   12  O           1      20.709  82.047 -33.330  0.00  0.00    -0.268 OA
HETATM   13  H           1      19.338  82.434 -30.542  0.00  0.00     0.163 HD
BRANCH  11  14
HETATM   14  C           1      18.947  80.895 -32.468  0.00  0.00     0.032 A 
HETATM   15  C           1      18.662  80.266 -33.625  0.00  0.00     0.019 A 
HETATM   16  C           1      17.705  79.327 -33.695  0.00  0.00     0.030 A 
HETATM   17  C           1      16.996  78.979 -32.607  0.00  0.00     0.028 A 
HETATM   18  C           1      17.274  79.601 -31.450  0.00  0.00     0.030 A 
HETATM   19  C           1      18.232  80.542 -31.381  0.00  0.00     0.019 A 
BRANCH  17  20
HETATM   20  N           1      16.105  78.083 -32.746  0.00  0.00    -0.384 N 
HETATM   21  H           1      15.574  78.099 -33.653  0.00  0.00     0.160 HD
BRANCH  20  22
HETATM   22  C           1      15.749  77.035 -31.770  0.00  0.00     0.180 C 
BRANCH  22  23
HETATM   23  C           1      14.759  76.100 -32.417  0.00  0.00     0.070 A 
HETATM   24  C           1      13.815  76.514 -33.276  0.00  0.00     0.147 A 
HETATM   25  N           1      12.995  75.718 -33.814  0.00  0.00    -0.237 NA
HETATM   26  C           1      13.079  74.485 -33.523  0.00  0.00     0.202 A 
HETATM   27  C           1      14.026  74.057 -32.658  0.00  0.00     0.174 A 
HETATM   28  N           1      12.242  73.710 -34.081  0.00  0.00    -0.043 NA
HETATM   29  N           1      14.839  74.872 -32.127  0.00  0.00    -0.241 NA
HETATM   30  C           1      14.102  72.731 -32.354  0.00  0.00     0.292 A 
HETATM   31  O           1      14.882  72.194 -31.605  0.00  0.00    -0.265 OA
HETATM   32  N           1      13.171  71.987 -32.996  0.00  0.00    -0.152 N 
HETATM   33  C           1      12.252  72.468 -33.850  0.00  0.00     0.703 A 
HETATM   34  H           1      13.140  70.993 -32.844  0.00  0.00     0.187 HD
BRANCH  33  35
HETATM   35  N           1      11.454  71.630 -34.363  0.00  0.00    -0.233 N 
HETATM   36  H           1      10.533  71.409 -33.913  0.00  0.00     0.174 HD
HETATM   37  H           1      11.710  71.143 -35.257  0.00  0.00     0.174 HD
ENDBRANCH  33  35
ENDBRANCH  22  23
ENDBRANCH  20  22
ENDBRANCH  17  20
ENDBRANCH  11  14
ENDBRANCH   5  10
ENDBRANCH   4   5
ENDBRANCH   3   4
ENDBRANCH   1   3
BRANCH   1  38
HETATM   38  O           1      23.712  81.816 -32.679  0.00  0.00    -0.776 OA
HETATM   39  H           1      23.278  81.048 -32.274  0.00  0.00     0.167 HD
ENDBRANCH   1  38
TORSDOF 12
ENDMDL
MODEL 9
REMARK VINA RESULT:    -7.799      2.484     10.471
REMARK INTER + INTRA:         -13.801
REMARK INTER:                 -12.586
REMARK INTRA:                  -1.214
REMARK UNBOUND:                -1.214
REMARK  12 active torsions:
REMARK  status: ('A' for Active; 'I' for Inactive)
REMARK    1  A    between atoms: C_1  and  C_2 
REMARK    2  A    between atoms: C_1  and  O_32 
REMARK    3  A    between atoms: C_2  and  C_3 
REMARK    4  A    between atoms: C_3  and  C_4 
REMARK    5  A    between atoms: C_4  and  C_5 
REMARK    6  A    between atoms: C_4  and  N_8 
REMARK    7  A    between atoms: C_5  and  O_7 
REMARK       I    between atoms: N_8  and  C_9 
REMARK    8  A    between atoms: C_9  and  C_11 
REMARK    9  A    between atoms: C_16  and  N_17 
REMARK   10  A    between atoms: N_17  and  C_18 
REMARK   11  A    between atoms: C_18  and  C_19 
REMARK   12  A    between atoms: C_25  and  N_26 
ROOT
HETATM    1  C           1      24.873  83.485 -32.484  0.00  0.00     0.139 C 
HETATM    2  O           1      24.138  83.081 -31.615  0.00  0.00    -0.650 OA
ENDROOT
BRANCH   1   3
HETATM    3  C           1      24.477  83.978 -33.865  0.00  0.00     0.112 C 
BRANCH   3   4
HETATM    4  C           1      23.972  85.432 -33.868  0.00  0.00     0.046 C 
BRANCH   4   5
HETATM    5  C           1      22.537  85.610 -33.337  0.00  0.00     0.183 C 
BRANCH   5   6
HETATM    6  C           1      22.346  86.278 -31.977  0.00  0.00     0.163 C 
HETATM    7  O           1      23.229  86.451 -31.171  0.00  0.00    -0.648 OA
BRANCH   6   8
HETATM    8  O           1      21.086  86.693 -31.747  0.00  0.00    -0.775 OA
HETATM    9  H           1      20.490  86.234 -32.360  0.00  0.00     0.167 HD
ENDBRANCH   6   8
ENDBRANCH   5   6
BRANCH   5  10
HETATM   10  N           1      21.785  84.346 -33.402  0.00  0.00    -0.343 N 
HETATM   11  C           1      20.708  84.172 -34.230  0.00  0.00     0.252 C 
HETATM   12  O           1      20.383  85.064 -34.977  0.00  0.00    -0.268 OA
HETATM   13  H           1      22.050  83.597 -32.770  0.00  0.00     0.163 HD
BRANCH  11  14
HETATM   14  C           1      20.068  82.968 -34.151  0.00  0.00     0.032 A 
HETATM   15  C           1      19.000  82.824 -33.343  0.00  0.00     0.019 A 
HETATM   16  C           1      18.349  81.655 -33.241  0.00  0.00     0.030 A 
HETATM   17  C           1      18.742  80.581 -33.947  0.00  0.00     0.028 A 
HETATM   18  C           1      19.806  80.715 -34.756  0.00  0.00     0.030 A 
HETATM   19  C           1      20.457  81.887 -34.856  0.00  0.00     0.019 A 
BRANCH  17  20
HETATM   20  N           1      18.080  79.505 -33.803  0.00  0.00    -0.384 N 
HETATM   21  H           1      18.487  78.651 -34.258  0.00  0.00     0.160 HD
BRANCH  20  22
HETATM   22  C           1      16.811  79.343 -33.065  0.00  0.00     0.180 C 
BRANCH  22  23
HETATM   23  C           1      17.027  78.331 -31.968  0.00  0.00     0.070 A 
HETATM   24  C           1      18.184  78.211 -31.300  0.00  0.00     0.147 A 
HETATM   25  N           1      18.348  77.361 -30.380  0.00  0.00    -0.237 NA
HETATM   26  C           1      17.375  76.600 -30.087  0.00  0.00     0.202 A 
HETATM   27  C           1      16.204  76.712 -30.755  0.00  0.00     0.174 A 
HETATM   28  N           1      17.570  75.758 -29.158  0.00  0.00    -0.043 NA
HETATM   29  N           1      16.059  77.571 -31.677  0.00  0.00    -0.241 NA
HETATM   30  C           1      15.169  75.887 -30.431  0.00  0.00     0.292 A 
HETATM   31  O           1      14.070  75.860 -30.930  0.00  0.00    -0.265 OA
HETATM   32  N           1      15.472  75.027 -29.431  0.00  0.00    -0.152 N 
HETATM   33  C           1      16.657  74.961 -28.800  0.00  0.00     0.703 A 
HETATM   34  H           1      14.777  74.373 -29.113  0.00  0.00     0.187 HD
BRANCH  33  35
HETATM   35  N           1      16.770  74.094 -27.886  0.00  0.00    -0.233 N 
HETATM   36  H           1      15.960  73.843 -27.269  0.00  0.00     0.174 HD
HETATM   37  H           1      17.689  73.610 -27.734  0.00  0.00     0.174 HD
ENDBRANCH  33  35
ENDBRANCH  22  23
ENDBRANCH  20  22
ENDBRANCH  17  20
ENDBRANCH  11  14
ENDBRANCH   5  10
ENDBRANCH   4   5
ENDBRANCH   3   4
ENDBRANCH   1   3
BRANCH   1  38
HETATM   38  O           1      26.209  83.538 -32.308  0.00  0.00    -0.776 OA
HETATM   39  H           1      26.593  82.708 -32.636  0.00  0.00     0.167 HD
ENDBRANCH   1  38
TORSDOF 12
ENDMDL
