MODEL 1
REMARK VINA RESULT:    -8.406      0.000      0.000
REMARK INTER + INTRA:         -14.770
REMARK INTER:                 -13.394
REMARK INTRA:                  -1.377
REMARK UNBOUND:                -1.204
REMARK  12 active torsions:
REMARK  status: ('A' for Active; 'I' for Inactive)
REMARK    1  A    between atoms: C_1  and  C_2 
REMARK    2  A    between atoms: C_1  and  O_32 
REMARK    3  A    between atoms: C_2  and  C_3 
REMARK    4  A    between atoms: C_3  and  C_4 
REMARK    5  A    between atoms: C_4  and  C_5 
REMARK    6  A    between atoms: C_4  and  N_8 
REMARK    7  A    between atoms: C_5  and  O_7 
REMARK       I    between atoms: N_8  and  C_9 
REMARK    8  A    between atoms: C_9  and  C_11 
REMARK    9  A    between atoms: C_16  and  N_17 
REMARK   10  A    between atoms: N_17  and  C_18 
REMARK   11  A    between atoms: C_18  and  C_19 
REMARK   12  A    between atoms: C_25  and  N_26 
ROOT
HETATM    1  C           1      13.461  74.755 -33.947  0.00  0.00     0.139 C 
HETATM    2  O           1      13.367  75.913 -33.620  0.00  0.00    -0.650 OA
ENDROOT
BRANCH   1   3
HETATM    3  C           1      13.958  73.599 -33.097  0.00  0.00     0.112 C 
BRANCH   3   4
HETATM    4  C           1      15.380  73.814 -32.551  0.00  0.00     0.046 C 
BRANCH   4   5
HETATM    5  C           1      15.452  74.693 -31.287  0.00  0.00     0.183 C 
BRANCH   5   6
HETATM    6  C           1      14.201  74.817 -30.420  0.00  0.00     0.163 C 
HETATM    7  O           1      13.793  73.951 -29.682  0.00  0.00    -0.648 OA
BRANCH   6   8
HETATM    8  O           1      13.583  76.008 -30.524  0.00  0.00    -0.775 OA
HETATM    9  H           1      12.922  75.955 -31.233  0.00  0.00     0.167 HD
ENDBRANCH   6   8
ENDBRANCH   5   6
BRANCH   5  10
HETATM   10  N           1      16.002  76.023 -31.594  0.00  0.00    -0.343 N 
HETATM   11  C           1      17.035  76.574 -30.886  0.00  0.00     0.252 C 
HETATM   12  O           1      17.558  75.934 -30.005  0.00  0.00    -0.268 OA
HETATM   13  H           1      15.559  76.567 -32.329  0.00  0.00     0.163 HD
BRANCH  11  14
HETATM   14  C           1      17.412  77.838 -31.242  0.00  0.00     0.032 A 
HETATM   15  C           1      16.997  78.361 -32.412  0.00  0.00     0.019 A 
HETATM   16  C           1      17.350  79.598 -32.792  0.00  0.00     0.030 A 
HETATM   17  C           1      18.133  80.364 -32.013  0.00  0.00     0.028 A 
HETATM   18  C           1      18.551  79.851 -30.844  0.00  0.00     0.030 A 
HETATM   19  C           1      18.197  78.611 -30.465  0.00  0.00     0.019 A 
BRANCH  17  20
HETATM   20  N           1      18.428  81.527 -32.434  0.00  0.00    -0.384 N 
HETATM   21  H           1      18.344  82.305 -31.733  0.00  0.00     0.160 HD
BRANCH  20  22
HETATM   22  C           1      18.873  81.884 -33.796  0.00  0.00     0.180 C 
BRANCH  22  23
HETATM   23  C           1      20.356  82.156 -33.754  0.00  0.00     0.070 A 
HETATM   24  C           1      21.136  82.123 -34.845  0.00  0.00     0.147 A 
HETATM   25  N           1      22.377  82.357 -34.794  0.00  0.00    -0.237 NA
HETATM   26  C           1      22.889  82.633 -33.666  0.00  0.00     0.202 A 
HETATM   27  C           1      22.111  82.668 -32.560  0.00  0.00     0.174 A 
HETATM   28  N           1      24.137  82.865 -33.648  0.00  0.00    -0.043 NA
HETATM   29  N           1      20.867  82.429 -32.631  0.00  0.00    -0.241 NA
HETATM   30  C           1      22.675  82.964 -31.356  0.00  0.00     0.292 A 
HETATM   31  O           1      22.122  83.033 -30.284  0.00  0.00    -0.265 OA
HETATM   32  N           1      24.006  83.196 -31.438  0.00  0.00    -0.152 N 
HETATM   33  C           1      24.730  83.148 -32.569  0.00  0.00     0.703 A 
HETATM   34  H           1      24.521  83.425 -30.605  0.00  0.00     0.187 HD
BRANCH  33  35
HETATM   35  N           1      25.968  83.391 -32.466  0.00  0.00    -0.233 N 
HETATM   36  H           1      26.483  83.919 -33.213  0.00  0.00     0.174 HD
HETATM   37  H           1      26.498  83.063 -31.622  0.00  0.00     0.174 HD
ENDBRANCH  33  35
ENDBRANCH  22  23
ENDBRANCH  20  22
ENDBRANCH  17  20
ENDBRANCH  11  14
ENDBRANCH   5  10
ENDBRANCH   4   5
ENDBRANCH   3   4
ENDBRANCH   1   3
BRANCH   1  38
HETATM   38  O           1      13.116  74.342 -35.184  0.00  0.00    -0.776 OA
HETATM   39  H           1      13.597  73.520 -35.377  0.00  0.00     0.167 HD
ENDBRANCH   1  38
TORSDOF 12
ENDMDL
MODEL 2
REMARK VINA RESULT:    -8.336      0.598      0.996
REMARK INTER + INTRA:         -14.657
REMARK INTER:                 -13.323
REMARK INTRA:                  -1.334
REMARK UNBOUND:                -1.204
REMARK  12 active torsions:
REMARK  status: ('A' for Active; 'I' for Inactive)
REMARK    1  A    between atoms: C_1  and  C_2 
REMARK    2  A    between atoms: C_1  and  O_32 
REMARK    3  A    between atoms: C_2  and  C_3 
REMARK    4  A    between atoms: C_3  and  C_4 
REMARK    5  A    between atoms: C_4  and  C_5 
REMARK    6  A    between atoms: C_4  and  N_8 
REMARK    7  A    between atoms: C_5  and  O_7 
REMARK       I    between atoms: N_8  and  C_9 
REMARK    8  A    between atoms: C_9  and  C_11 
REMARK    9  A    between atoms: C_16  and  N_17 
REMARK   10  A    between atoms: N_17  and  C_18 
REMARK   11  A    between atoms: C_18  and  C_19 
REMARK   12  A    between atoms: C_25  and  N_26 
ROOT
HETATM    1  C           1      13.398  74.548 -34.019  0.00  0.00     0.139 C 
HETATM    2  O           1      13.338  75.701 -33.667  0.00  0.00    -0.650 OA
ENDROOT
BRANCH   1   3
HETATM    3  C           1      13.820  73.354 -33.180  0.00  0.00     0.112 C 
BRANCH   3   4
HETATM    4  C           1      15.249  73.478 -32.623  0.00  0.00     0.046 C 
BRANCH   4   5
HETATM    5  C           1      15.352  74.257 -31.298  0.00  0.00     0.183 C 
BRANCH   5   6
HETATM    6  C           1      14.112  74.343 -30.410  0.00  0.00     0.163 C 
HETATM    7  O           1      13.746  73.467 -29.663  0.00  0.00    -0.648 OA
BRANCH   6   8
HETATM    8  O           1      13.453  75.513 -30.508  0.00  0.00    -0.775 OA
HETATM    9  H           1      12.533  75.331 -30.759  0.00  0.00     0.167 HD
ENDBRANCH   6   8
ENDBRANCH   5   6
BRANCH   5  10
HETATM   10  N           1      15.929  75.595 -31.510  0.00  0.00    -0.343 N 
HETATM   11  C           1      16.850  76.143 -30.659  0.00  0.00     0.252 C 
HETATM   12  O           1      17.250  75.496 -29.720  0.00  0.00    -0.268 OA
HETATM   13  H           1      15.589  76.145 -32.293  0.00  0.00     0.163 HD
BRANCH  11  14
HETATM   14  C           1      17.262  77.414 -30.944  0.00  0.00     0.032 A 
HETATM   15  C           1      18.280  77.962 -30.253  0.00  0.00     0.019 A 
HETATM   16  C           1      18.709  79.208 -30.506  0.00  0.00     0.030 A 
HETATM   17  C           1      18.136  79.956 -31.465  0.00  0.00     0.028 A 
HETATM   18  C           1      17.120  79.417 -32.159  0.00  0.00     0.030 A 
HETATM   19  C           1      16.692  78.169 -31.904  0.00  0.00     0.019 A 
BRANCH  17  20
HETATM   20  N           1      18.592  81.127 -31.652  0.00  0.00    -0.384 N 
HETATM   21  H           1      18.966  81.616 -30.800  0.00  0.00     0.160 HD
BRANCH  20  22
HETATM   22  C           1      18.648  81.858 -32.933  0.00  0.00     0.180 C 
BRANCH  22  23
HETATM   23  C           1      20.082  82.243 -33.197  0.00  0.00     0.070 A 
HETATM   24  C           1      20.529  82.619 -34.405  0.00  0.00     0.147 A 
HETATM   25  N           1      21.733  82.943 -34.609  0.00  0.00    -0.237 NA
HETATM   26  C           1      22.537  82.908 -33.627  0.00  0.00     0.202 A 
HETATM   27  C           1      22.097  82.530 -32.405  0.00  0.00     0.174 A 
HETATM   28  N           1      23.739  83.241 -33.864  0.00  0.00    -0.043 NA
HETATM   29  N           1      20.885  82.207 -32.221  0.00  0.00    -0.241 NA
HETATM   30  C           1      22.973  82.496 -31.362  0.00  0.00     0.292 A 
HETATM   31  O           1      22.740  82.182 -30.220  0.00  0.00    -0.265 OA
HETATM   32  N           1      24.227  82.867 -31.712  0.00  0.00    -0.152 N 
HETATM   33  C           1      24.608  83.236 -32.946  0.00  0.00     0.703 A 
HETATM   34  H           1      24.952  82.878 -31.015  0.00  0.00     0.187 HD
BRANCH  33  35
HETATM   35  N           1      25.824  83.552 -33.099  0.00  0.00    -0.233 N 
HETATM   36  H           1      26.261  83.588 -34.052  0.00  0.00     0.174 HD
HETATM   37  H           1      26.414  83.786 -32.263  0.00  0.00     0.174 HD
ENDBRANCH  33  35
ENDBRANCH  22  23
ENDBRANCH  20  22
ENDBRANCH  17  20
ENDBRANCH  11  14
ENDBRANCH   5  10
ENDBRANCH   4   5
ENDBRANCH   3   4
ENDBRANCH   1   3
BRANCH   1  38
HETATM   38  O           1      13.082  74.177 -35.276  0.00  0.00    -0.776 OA
HETATM   39  H           1      13.773  73.578 -35.602  0.00  0.00     0.167 HD
ENDBRANCH   1  38
TORSDOF 12
ENDMDL
MODEL 3
REMARK VINA RESULT:    -8.300      1.223      2.123
REMARK INTER + INTRA:         -14.598
REMARK INTER:                 -13.337
REMARK INTRA:                  -1.262
REMARK UNBOUND:                -1.204
REMARK  12 active torsions:
REMARK  status: ('A' for Active; 'I' for Inactive)
REMARK    1  A    between atoms: C_1  and  C_2 
REMARK    2  A    between atoms: C_1  and  O_32 
REMARK    3  A    between atoms: C_2  and  C_3 
REMARK    4  A    between atoms: C_3  and  C_4 
REMARK    5  A    between atoms: C_4  and  C_5 
REMARK    6  A    between atoms: C_4  and  N_8 
REMARK    7  A    between atoms: C_5  and  O_7 
REMARK       I    between atoms: N_8  and  C_9 
REMARK    8  A    between atoms: C_9  and  C_11 
REMARK    9  A    between atoms: C_16  and  N_17 
REMARK   10  A    between atoms: N_17  and  C_18 
REMARK   11  A    between atoms: C_18  and  C_19 
REMARK   12  A    between atoms: C_25  and  N_26 
ROOT
HETATM    1  C           1      14.226  72.756 -30.968  0.00  0.00     0.139 C 
HETATM    2  O           1      13.066  72.839 -30.645  0.00  0.00    -0.650 OA
ENDROOT
BRANCH   1   3
HETATM    3  C           1      14.774  72.496 -32.361  0.00  0.00     0.112 C 
BRANCH   3   4
HETATM    4  C           1      15.327  73.761 -33.041  0.00  0.00     0.046 C 
BRANCH   4   5
HETATM    5  C           1      14.581  75.059 -32.677  0.00  0.00     0.183 C 
BRANCH   5   6
HETATM    6  C           1      13.411  75.493 -33.558  0.00  0.00     0.163 C 
HETATM    7  O           1      12.756  74.743 -34.241  0.00  0.00    -0.648 OA
BRANCH   6   8
HETATM    8  O           1      13.141  76.811 -33.494  0.00  0.00    -0.775 OA
HETATM    9  H           1      13.601  77.185 -32.726  0.00  0.00     0.167 HD
ENDBRANCH   6   8
ENDBRANCH   5   6
BRANCH   5  10
HETATM   10  N           1      15.520  76.175 -32.479  0.00  0.00    -0.343 N 
HETATM   11  C           1      16.041  76.490 -31.253  0.00  0.00     0.252 C 
HETATM   12  O           1      15.766  75.804 -30.297  0.00  0.00    -0.268 OA
HETATM   13  H           1      15.746  76.760 -33.278  0.00  0.00     0.163 HD
BRANCH  11  14
HETATM   14  C           1      16.858  77.584 -31.201  0.00  0.00     0.032 A 
HETATM   15  C           1      16.621  78.641 -32.002  0.00  0.00     0.019 A 
HETATM   16  C           1      17.405  79.729 -31.977  0.00  0.00     0.030 A 
HETATM   17  C           1      18.459  79.804 -31.145  0.00  0.00     0.028 A 
HETATM   18  C           1      18.702  78.755 -30.343  0.00  0.00     0.030 A 
HETATM   19  C           1      17.916  77.665 -30.370  0.00  0.00     0.019 A 
BRANCH  17  20
HETATM   20  N           1      19.158  80.865 -31.174  0.00  0.00    -0.384 N 
HETATM   21  H           1      19.878  80.961 -30.414  0.00  0.00     0.160 HD
BRANCH  20  22
HETATM   22  C           1      19.060  81.961 -32.159  0.00  0.00     0.180 C 
BRANCH  22  23
HETATM   23  C           1      20.438  82.228 -32.710  0.00  0.00     0.070 A 
HETATM   24  C           1      20.885  81.691 -33.854  0.00  0.00     0.147 A 
HETATM   25  N           1      22.042  81.929 -34.305  0.00  0.00    -0.237 NA
HETATM   26  C           1      22.795  82.706 -33.642  0.00  0.00     0.202 A 
HETATM   27  C           1      22.354  83.252 -32.486  0.00  0.00     0.174 A 
HETATM   28  N           1      23.950  82.925 -34.121  0.00  0.00    -0.043 NA
HETATM   29  N           1      21.190  83.000 -32.048  0.00  0.00    -0.241 NA
HETATM   30  C           1      23.175  84.082 -31.784  0.00  0.00     0.292 A 
HETATM   31  O           1      22.933  84.644 -30.742  0.00  0.00    -0.265 OA
HETATM   32  N           1      24.381  84.256 -32.373  0.00  0.00    -0.152 N 
HETATM   33  C           1      24.766  83.686 -33.528  0.00  0.00     0.703 A 
HETATM   34  H           1      25.063  84.852 -31.938  0.00  0.00     0.187 HD
BRANCH  33  35
HETATM   35  N           1      25.932  83.956 -33.938  0.00  0.00    -0.233 N 
HETATM   36  H           1      26.776  83.484 -33.531  0.00  0.00     0.174 HD
HETATM   37  H           1      26.069  84.665 -34.700  0.00  0.00     0.174 HD
ENDBRANCH  33  35
ENDBRANCH  22  23
ENDBRANCH  20  22
ENDBRANCH  17  20
ENDBRANCH  11  14
ENDBRANCH   5  10
ENDBRANCH   4   5
ENDBRANCH   3   4
ENDBRANCH   1   3
BRANCH   1  38
HETATM   38  O           1      15.221  72.887 -30.067  0.00  0.00    -0.776 OA
HETATM   39  H           1      16.060  72.970 -30.548  0.00  0.00     0.167 HD
ENDBRANCH   1  38
TORSDOF 12
ENDMDL
MODEL 4
REMARK VINA RESULT:    -8.215      1.320      2.410
REMARK INTER + INTRA:         -14.461
REMARK INTER:                 -13.116
REMARK INTRA:                  -1.345
REMARK UNBOUND:                -1.204
REMARK  12 active torsions:
REMARK  status: ('A' for Active; 'I' for Inactive)
REMARK    1  A    between atoms: C_1  and  C_2 
REMARK    2  A    between atoms: C_1  and  O_32 
REMARK    3  A    between atoms: C_2  and  C_3 
REMARK    4  A    between atoms: C_3  and  C_4 
REMARK    5  A    between atoms: C_4  and  C_5 
REMARK    6  A    between atoms: C_4  and  N_8 
REMARK    7  A    between atoms: C_5  and  O_7 
REMARK       I    between atoms: N_8  and  C_9 
REMARK    8  A    between atoms: C_9  and  C_11 
REMARK    9  A    between atoms: C_16  and  N_17 
REMARK   10  A    between atoms: N_17  and  C_18 
REMARK   11  A    between atoms: C_18  and  C_19 
REMARK   12  A    between atoms: C_25  and  N_26 
ROOT
HETATM    1  C           1      15.342  74.027 -29.927  0.00  0.00     0.139 C 
HETATM    2  O           1      14.392  73.294 -29.798  0.00  0.00    -0.650 OA
ENDROOT
BRANCH   1   3
HETATM    3  C           1      16.366  74.012 -31.050  0.00  0.00     0.112 C 
BRANCH   3   4
HETATM    4  C           1      15.759  74.325 -32.429  0.00  0.00     0.046 C 
BRANCH   4   5
HETATM    5  C           1      14.884  75.593 -32.468  0.00  0.00     0.183 C 
BRANCH   5   6
HETATM    6  C           1      13.597  75.560 -33.288  0.00  0.00     0.163 C 
HETATM    7  O           1      13.012  74.550 -33.599  0.00  0.00    -0.648 OA
BRANCH   6   8
HETATM    8  O           1      13.135  76.778 -33.626  0.00  0.00    -0.775 OA
HETATM    9  H           1      13.847  77.426 -33.501  0.00  0.00     0.167 HD
ENDBRANCH   6   8
ENDBRANCH   5   6
BRANCH   5  10
HETATM   10  N           1      15.684  76.781 -32.810  0.00  0.00    -0.343 N 
HETATM   11  C           1      16.143  77.658 -31.864  0.00  0.00     0.252 C 
HETATM   12  O           1      15.933  77.433 -30.695  0.00  0.00    -0.268 OA
HETATM   13  H           1      15.855  76.978 -33.792  0.00  0.00     0.163 HD
BRANCH  11  14
HETATM   14  C           1      16.827  78.747 -32.323  0.00  0.00     0.032 A 
HETATM   15  C           1      16.679  79.940 -31.715  0.00  0.00     0.019 A 
HETATM   16  C           1      17.334  81.031 -32.142  0.00  0.00     0.030 A 
HETATM   17  C           1      18.167  80.970 -33.196  0.00  0.00     0.028 A 
HETATM   18  C           1      18.320  79.784 -33.808  0.00  0.00     0.030 A 
HETATM   19  C           1      17.662  78.693 -33.379  0.00  0.00     0.019 A 
BRANCH  17  20
HETATM   20  N           1      18.755  82.041 -33.546  0.00  0.00    -0.384 N 
HETATM   21  H           1      18.711  82.834 -32.859  0.00  0.00     0.160 HD
BRANCH  20  22
HETATM   22  C           1      19.485  82.274 -34.808  0.00  0.00     0.180 C 
BRANCH  22  23
HETATM   23  C           1      20.921  82.590 -34.473  0.00  0.00     0.070 A 
HETATM   24  C           1      21.788  83.087 -35.368  0.00  0.00     0.147 A 
HETATM   25  N           1      22.988  83.351 -35.070  0.00  0.00    -0.237 NA
HETATM   26  C           1      23.372  83.132 -33.880  0.00  0.00     0.202 A 
HETATM   27  C           1      22.506  82.630 -32.971  0.00  0.00     0.174 A 
HETATM   28  N           1      24.582  83.408 -33.613  0.00  0.00    -0.043 NA
HETATM   29  N           1      21.305  82.370 -33.289  0.00  0.00    -0.241 NA
HETATM   30  C           1      22.933  82.399 -31.698  0.00  0.00     0.292 A 
HETATM   31  O           1      22.290  81.955 -30.778  0.00  0.00    -0.265 OA
HETATM   32  N           1      24.234  82.724 -31.510  0.00  0.00    -0.152 N 
HETATM   33  C           1      25.050  83.223 -32.454  0.00  0.00     0.703 A 
HETATM   34  H           1      24.650  82.593 -30.604  0.00  0.00     0.187 HD
BRANCH  33  35
HETATM   35  N           1      26.241  83.471 -32.107  0.00  0.00    -0.233 N 
HETATM   36  H           1      26.452  84.122 -31.311  0.00  0.00     0.174 HD
HETATM   37  H           1      27.041  83.022 -32.618  0.00  0.00     0.174 HD
ENDBRANCH  33  35
ENDBRANCH  22  23
ENDBRANCH  20  22
ENDBRANCH  17  20
ENDBRANCH  11  14
ENDBRANCH   5  10
ENDBRANCH   4   5
ENDBRANCH   3   4
ENDBRANCH   1   3
BRANCH   1  38
HETATM   38  O           1      15.615  74.993 -29.027  0.00  0.00    -0.776 OA
HETATM   39  H           1      15.521  75.855 -29.465  0.00  0.00     0.167 HD
ENDBRANCH   1  38
TORSDOF 12
ENDMDL
MODEL 5
REMARK VINA RESULT:    -8.182      1.717      2.087
REMARK INTER + INTRA:         -14.408
REMARK INTER:                 -13.614
REMARK INTRA:                  -0.794
REMARK UNBOUND:                -1.204
REMARK  12 active torsions:
REMARK  status: ('A' for Active; 'I' for Inactive)
REMARK    1  A    between atoms: C_1  and  C_2 
REMARK    2  A    between atoms: C_1  and  O_32 
REMARK    3  A    between atoms: C_2  and  C_3 
REMARK    4  A    between atoms: C_3  and  C_4 
REMARK    5  A    between atoms: C_4  and  C_5 
REMARK    6  A    between atoms: C_4  and  N_8 
REMARK    7  A    between atoms: C_5  and  O_7 
REMARK       I    between atoms: N_8  and  C_9 
REMARK    8  A    between atoms: C_9  and  C_11 
REMARK    9  A    between atoms: C_16  and  N_17 
REMARK   10  A    between atoms: N_17  and  C_18 
REMARK   11  A    between atoms: C_18  and  C_19 
REMARK   12  A    between atoms: C_25  and  N_26 
ROOT
HETATM    1  C           1      12.775  73.825 -34.112  0.00  0.00     0.139 C 
HETATM    2  O           1      11.847  73.056 -34.035  0.00  0.00    -0.650 OA
ENDROOT
BRANCH   1   3
HETATM    3  C           1      13.670  74.297 -32.979  0.00  0.00     0.112 C 
BRANCH   3   4
HETATM    4  C           1      14.071  75.778 -33.099  0.00  0.00     0.046 C 
BRANCH   4   5
HETATM    5  C           1      15.033  76.269 -32.000  0.00  0.00     0.183 C 
BRANCH   5   6
HETATM    6  C           1      14.563  76.216 -30.549  0.00  0.00     0.163 C 
HETATM    7  O           1      14.893  75.367 -29.755  0.00  0.00    -0.648 OA
BRANCH   6   8
HETATM    8  O           1      13.747  77.230 -30.203  0.00  0.00    -0.775 OA
HETATM    9  H           1      14.269  78.047 -30.161  0.00  0.00     0.167 HD
ENDBRANCH   6   8
ENDBRANCH   5   6
BRANCH   5  10
HETATM   10  N           1      15.571  77.602 -32.321  0.00  0.00    -0.343 N 
HETATM   11  C           1      16.748  78.066 -31.799  0.00  0.00     0.252 C 
HETATM   12  O           1      17.406  77.346 -31.087  0.00  0.00    -0.268 OA
HETATM   13  H           1      15.016  78.213 -32.913  0.00  0.00     0.163 HD
BRANCH  11  14
HETATM   14  C           1      17.103  79.341 -32.136  0.00  0.00     0.032 A 
HETATM   15  C           1      17.947  80.036 -31.349  0.00  0.00     0.019 A 
HETATM   16  C           1      18.315  81.290 -31.650  0.00  0.00     0.030 A 
HETATM   17  C           1      17.852  81.901 -32.755  0.00  0.00     0.028 A 
HETATM   18  C           1      17.010  81.216 -33.545  0.00  0.00     0.030 A 
HETATM   19  C           1      16.642  79.959 -33.242  0.00  0.00     0.019 A 
BRANCH  17  20
HETATM   20  N           1      18.241  83.090 -32.979  0.00  0.00    -0.384 N 
HETATM   21  H           1      18.227  83.741 -32.154  0.00  0.00     0.160 HD
BRANCH  20  22
HETATM   22  C           1      18.706  83.638 -34.269  0.00  0.00     0.180 C 
BRANCH  22  23
HETATM   23  C           1      20.207  83.500 -34.329  0.00  0.00     0.070 A 
HETATM   24  C           1      20.823  82.442 -34.878  0.00  0.00     0.147 A 
HETATM   25  N           1      22.082  82.344 -34.924  0.00  0.00    -0.237 NA
HETATM   26  C           1      22.775  83.286 -34.431  0.00  0.00     0.202 A 
HETATM   27  C           1      22.164  84.356 -33.874  0.00  0.00     0.174 A 
HETATM   28  N           1      24.037  83.158 -34.495  0.00  0.00    -0.043 NA
HETATM   29  N           1      20.899  84.436 -33.836  0.00  0.00    -0.241 NA
HETATM   30  C           1      22.922  85.358 -33.348  0.00  0.00     0.292 A 
HETATM   31  O           1      22.532  86.371 -32.818  0.00  0.00    -0.265 OA
HETATM   32  N           1      24.252  85.133 -33.463  0.00  0.00    -0.152 N 
HETATM   33  C           1      24.805  84.047 -34.029  0.00  0.00     0.703 A 
HETATM   34  H           1      24.901  85.812 -33.107  0.00  0.00     0.187 HD
BRANCH  33  35
HETATM   35  N           1      26.069  83.995 -34.052  0.00  0.00    -0.233 N 
HETATM   36  H           1      26.606  83.464 -33.324  0.00  0.00     0.174 HD
HETATM   37  H           1      26.600  84.490 -34.811  0.00  0.00     0.174 HD
ENDBRANCH  33  35
ENDBRANCH  22  23
ENDBRANCH  20  22
ENDBRANCH  17  20
ENDBRANCH  11  14
ENDBRANCH   5  10
ENDBRANCH   4   5
ENDBRANCH   3   4
ENDBRANCH   1   3
BRANCH   1  38
HETATM   38  O           1      13.132  74.385 -35.285  0.00  0.00    -0.776 OA
HETATM   39  H           1      12.788  73.831 -36.005  0.00  0.00     0.167 HD
ENDBRANCH   1  38
TORSDOF 12
ENDMDL
MODEL 6
REMARK VINA RESULT:    -7.953      2.658     10.948
REMARK INTER + INTRA:         -14.039
REMARK INTER:                 -12.790
REMARK INTRA:                  -1.249
REMARK UNBOUND:                -1.204
REMARK  12 active torsions:
REMARK  status: ('A' for Active; 'I' for Inactive)
REMARK    1  A    between atoms: C_1  and  C_2 
REMARK    2  A    between atoms: C_1  and  O_32 
REMARK    3  A    between atoms: C_2  and  C_3 
REMARK    4  A    between atoms: C_3  and  C_4 
REMARK    5  A    between atoms: C_4  and  C_5 
REMARK    6  A    between atoms: C_4  and  N_8 
REMARK    7  A    between atoms: C_5  and  O_7 
REMARK       I    between atoms: N_8  and  C_9 
REMARK    8  A    between atoms: C_9  and  C_11 
REMARK    9  A    between atoms: C_16  and  N_17 
REMARK   10  A    between atoms: N_17  and  C_18 
REMARK   11  A    between atoms: C_18  and  C_19 
REMARK   12  A    between atoms: C_25  and  N_26 
ROOT
HETATM    1  C           1      22.491  86.861 -34.618  0.00  0.00     0.139 C 
HETATM    2  O           1      23.451  87.505 -34.269  0.00  0.00    -0.650 OA
ENDROOT
BRANCH   1   3
HETATM    3  C           1      22.457  85.756 -35.660  0.00  0.00     0.112 C 
BRANCH   3   4
HETATM    4  C           1      23.471  84.632 -35.386  0.00  0.00     0.046 C 
BRANCH   4   5
HETATM    5  C           1      23.407  84.049 -33.961  0.00  0.00     0.183 C 
BRANCH   5   6
HETATM    6  C           1      24.702  83.553 -33.322  0.00  0.00     0.163 C 
HETATM    7  O           1      24.753  82.847 -32.343  0.00  0.00    -0.648 OA
BRANCH   6   8
HETATM    8  O           1      25.814  83.952 -33.966  0.00  0.00    -0.775 OA
HETATM    9  H           1      25.753  83.675 -34.894  0.00  0.00     0.167 HD
ENDBRANCH   6   8
ENDBRANCH   5   6
BRANCH   5  10
HETATM   10  N           1      22.353  83.027 -33.851  0.00  0.00    -0.343 N 
HETATM   11  C           1      21.158  83.265 -33.228  0.00  0.00     0.252 C 
HETATM   12  O           1      20.926  84.367 -32.789  0.00  0.00    -0.268 OA
HETATM   13  H           1      22.546  82.097 -34.211  0.00  0.00     0.163 HD
BRANCH  11  14
HETATM   14  C           1      20.290  82.213 -33.149  0.00  0.00     0.032 A 
HETATM   15  C           1      19.784  81.844 -31.956  0.00  0.00     0.019 A 
HETATM   16  C           1      18.931  80.814 -31.844  0.00  0.00     0.030 A 
HETATM   17  C           1      18.549  80.112 -32.925  0.00  0.00     0.028 A 
HETATM   18  C           1      19.049  80.473 -34.118  0.00  0.00     0.030 A 
HETATM   19  C           1      19.903  81.504 -34.229  0.00  0.00     0.019 A 
BRANCH  17  20
HETATM   20  N           1      17.739  79.149 -32.746  0.00  0.00    -0.384 N 
HETATM   21  H           1      17.780  78.376 -33.456  0.00  0.00     0.160 HD
BRANCH  20  22
HETATM   22  C           1      16.758  79.013 -31.651  0.00  0.00     0.180 C 
BRANCH  22  23
HETATM   23  C           1      16.348  77.565 -31.558  0.00  0.00     0.070 A 
HETATM   24  C           1      16.988  76.670 -30.790  0.00  0.00     0.147 A 
HETATM   25  N           1      16.629  75.461 -30.720  0.00  0.00    -0.237 NA
HETATM   26  C           1      15.626  75.093 -31.406  0.00  0.00     0.202 A 
HETATM   27  C           1      14.975  75.987 -32.185  0.00  0.00     0.174 A 
HETATM   28  N           1      15.290  73.872 -31.313  0.00  0.00    -0.043 NA
HETATM   29  N           1      15.351  77.196 -32.243  0.00  0.00    -0.241 NA
HETATM   30  C           1      13.901  75.576 -32.916  0.00  0.00     0.292 A 
HETATM   31  O           1      13.220  76.244 -33.656  0.00  0.00    -0.265 OA
HETATM   32  N           1      13.620  74.262 -32.752  0.00  0.00    -0.152 N 
HETATM   33  C           1      14.304  73.419 -31.960  0.00  0.00     0.703 A 
HETATM   34  H           1      12.844  73.857 -33.247  0.00  0.00     0.187 HD
BRANCH  33  35
HETATM   35  N           1      13.905  72.219 -31.923  0.00  0.00    -0.233 N 
HETATM   36  H           1      13.967  71.651 -31.043  0.00  0.00     0.174 HD
HETATM   37  H           1      13.502  71.774 -32.784  0.00  0.00     0.174 HD
ENDBRANCH  33  35
ENDBRANCH  22  23
ENDBRANCH  20  22
ENDBRANCH  17  20
ENDBRANCH  11  14
ENDBRANCH   5  10
ENDBRANCH   4   5
ENDBRANCH   3   4
ENDBRANCH   1   3
BRANCH   1  38
HETATM   38  O           1      21.269  87.074 -34.088  0.00  0.00    -0.776 OA
HETATM   39  H           1      20.839  86.213 -33.957  0.00  0.00     0.167 HD
ENDBRANCH   1  38
TORSDOF 12
ENDMDL
MODEL 7
REMARK VINA RESULT:    -7.948      2.669     11.065
REMARK INTER + INTRA:         -14.031
REMARK INTER:                 -12.948
REMARK INTRA:                  -1.083
REMARK UNBOUND:                -1.204
REMARK  12 active torsions:
REMARK  status: ('A' for Active; 'I' for Inactive)
REMARK    1  A    between atoms: C_1  and  C_2 
REMARK    2  A    between atoms: C_1  and  O_32 
REMARK    3  A    between atoms: C_2  and  C_3 
REMARK    4  A    between atoms: C_3  and  C_4 
REMARK    5  A    between atoms: C_4  and  C_5 
REMARK    6  A    between atoms: C_4  and  N_8 
REMARK    7  A    between atoms: C_5  and  O_7 
REMARK       I    between atoms: N_8  and  C_9 
REMARK    8  A    between atoms: C_9  and  C_11 
REMARK    9  A    between atoms: C_16  and  N_17 
REMARK   10  A    between atoms: N_17  and  C_18 
REMARK   11  A    between atoms: C_18  and  C_19 
REMARK   12  A    between atoms: C_25  and  N_26 
ROOT
HETATM    1  C           1      25.080  83.994 -34.028  0.00  0.00     0.139 C 
HETATM    2  O           1      24.971  83.338 -33.020  0.00  0.00    -0.650 OA
ENDROOT
BRANCH   1   3
HETATM    3  C           1      23.958  84.607 -34.848  0.00  0.00     0.112 C 
BRANCH   3   4
HETATM    4  C           1      22.747  83.672 -35.015  0.00  0.00     0.046 C 
BRANCH   4   5
HETATM    5  C           1      21.512  84.073 -34.185  0.00  0.00     0.183 C 
BRANCH   5   6
HETATM    6  C           1      21.729  84.889 -32.913  0.00  0.00     0.163 C 
HETATM    7  O           1      21.430  86.053 -32.790  0.00  0.00    -0.648 OA
BRANCH   6   8
HETATM    8  O           1      22.271  84.187 -31.901  0.00  0.00    -0.775 OA
HETATM    9  H           1      21.575  83.654 -31.484  0.00  0.00     0.167 HD
ENDBRANCH   6   8
ENDBRANCH   5   6
BRANCH   5  10
HETATM   10  N           1      20.655  82.908 -33.911  0.00  0.00    -0.343 N 
HETATM   11  C           1      19.389  82.790 -34.418  0.00  0.00     0.252 C 
HETATM   12  O           1      18.965  83.643 -35.161  0.00  0.00    -0.268 OA
HETATM   13  H           1      21.004  82.192 -33.281  0.00  0.00     0.163 HD
BRANCH  11  14
HETATM   14  C           1      18.682  81.683 -34.041  0.00  0.00     0.032 A 
HETATM   15  C           1      19.141  80.454 -34.348  0.00  0.00     0.019 A 
HETATM   16  C           1      18.470  79.347 -33.993  0.00  0.00     0.030 A 
HETATM   17  C           1      17.312  79.427 -33.316  0.00  0.00     0.028 A 
HETATM   18  C           1      16.847  80.648 -33.006  0.00  0.00     0.030 A 
HETATM   19  C           1      17.520  81.756 -33.362  0.00  0.00     0.019 A 
BRANCH  17  20
HETATM   20  N           1      16.730  78.338 -33.013  0.00  0.00    -0.384 N 
HETATM   21  H           1      16.649  77.630 -33.785  0.00  0.00     0.160 HD
BRANCH  20  22
HETATM   22  C           1      16.165  77.977 -31.697  0.00  0.00     0.180 C 
BRANCH  22  23
HETATM   23  C           1      15.719  76.537 -31.753  0.00  0.00     0.070 A 
HETATM   24  C           1      16.229  75.582 -30.961  0.00  0.00     0.147 A 
HETATM   25  N           1      15.841  74.381 -31.016  0.00  0.00    -0.237 NA
HETATM   26  C           1      14.937  74.081 -31.855  0.00  0.00     0.202 A 
HETATM   27  C           1      14.416  75.036 -32.659  0.00  0.00     0.174 A 
HETATM   28  N           1      14.568  72.867 -31.885  0.00  0.00    -0.043 NA
HETATM   29  N           1      14.819  76.237 -32.589  0.00  0.00    -0.241 NA
HETATM   30  C           1      13.447  74.699 -33.555  0.00  0.00     0.292 A 
HETATM   31  O           1      12.887  75.428 -34.338  0.00  0.00    -0.265 OA
HETATM   32  N           1      13.121  73.386 -33.512  0.00  0.00    -0.152 N 
HETATM   33  C           1      13.673  72.479 -32.689  0.00  0.00     0.703 A 
HETATM   34  H           1      12.414  73.031 -34.133  0.00  0.00     0.187 HD
BRANCH  33  35
HETATM   35  N           1      13.250  71.290 -32.782  0.00  0.00    -0.233 N 
HETATM   36  H           1      13.914  70.481 -32.863  0.00  0.00     0.174 HD
HETATM   37  H           1      12.218  71.098 -32.778  0.00  0.00     0.174 HD
ENDBRANCH  33  35
ENDBRANCH  22  23
ENDBRANCH  20  22
ENDBRANCH  17  20
ENDBRANCH  11  14
ENDBRANCH   5  10
ENDBRANCH   4   5
ENDBRANCH   3   4
ENDBRANCH   1   3
BRANCH   1  38
HETATM   38  O           1      26.286  84.262 -34.568  0.00  0.00    -0.776 OA
HETATM   39  H           1      26.913  83.586 -34.266  0.00  0.00     0.167 HD
ENDBRANCH   1  38
TORSDOF 12
ENDMDL
MODEL 8
REMARK VINA RESULT:    -7.885      2.735     10.485
REMARK INTER + INTRA:         -13.929
REMARK INTER:                 -12.725
REMARK INTRA:                  -1.204
REMARK UNBOUND:                -1.204
REMARK  12 active torsions:
REMARK  status: ('A' for Active; 'I' for Inactive)
REMARK    1  A    between atoms: C_1  and  C_2 
REMARK    2  A    between atoms: C_1  and  O_32 
REMARK    3  A    between atoms: C_2  and  C_3 
REMARK    4  A    between atoms: C_3  and  C_4 
REMARK    5  A    between atoms: C_4  and  C_5 
REMARK    6  A    between atoms: C_4  and  N_8 
REMARK    7  A    between atoms: C_5  and  O_7 
REMARK       I    between atoms: N_8  and  C_9 
REMARK    8  A    between atoms: C_9  and  C_11 
REMARK    9  A    between atoms: C_16  and  N_17 
REMARK   10  A    between atoms: N_17  and  C_18 
REMARK   11  A    between atoms: C_18  and  C_19 
REMARK   12  A    between atoms: C_25  and  N_26 
ROOT
HETATM    1  C           1      24.895  83.922 -33.870  0.00  0.00     0.139 C 
HETATM    2  O           1      24.573  83.396 -32.832  0.00  0.00    -0.650 OA
ENDROOT
BRANCH   1   3
HETATM    3  C           1      23.976  84.554 -34.901  0.00  0.00     0.112 C 
BRANCH   3   4
HETATM    4  C           1      23.491  85.959 -34.502  0.00  0.00     0.046 C 
BRANCH   4   5
HETATM    5  C           1      22.187  85.974 -33.680  0.00  0.00     0.183 C 
BRANCH   5   6
HETATM    6  C           1      22.234  86.526 -32.257  0.00  0.00     0.163 C 
HETATM    7  O           1      23.201  86.469 -31.535  0.00  0.00    -0.648 OA
BRANCH   6   8
HETATM    8  O           1      21.092  87.120 -31.866  0.00  0.00    -0.775 OA
HETATM    9  H           1      20.895  86.847 -30.956  0.00  0.00     0.167 HD
ENDBRANCH   6   8
ENDBRANCH   5   6
BRANCH   5  10
HETATM   10  N           1      21.530  84.657 -33.702  0.00  0.00    -0.343 N 
HETATM   11  C           1      20.293  84.460 -34.255  0.00  0.00     0.252 C 
HETATM   12  O           1      19.730  85.383 -34.793  0.00  0.00    -0.268 OA
HETATM   13  H           1      21.996  83.880 -33.243  0.00  0.00     0.163 HD
BRANCH  11  14
HETATM   14  C           1      19.776  83.199 -34.158  0.00  0.00     0.032 A 
HETATM   15  C           1      18.577  83.006 -33.575  0.00  0.00     0.019 A 
HETATM   16  C           1      18.041  81.781 -33.462  0.00  0.00     0.030 A 
HETATM   17  C           1      18.685  80.698 -33.932  0.00  0.00     0.028 A 
HETATM   18  C           1      19.881  80.882 -34.516  0.00  0.00     0.030 A 
HETATM   19  C           1      20.416  82.110 -34.627  0.00  0.00     0.019 A 
BRANCH  17  20
HETATM   20  N           1      18.120  79.568 -33.792  0.00  0.00    -0.384 N 
HETATM   21  H           1      18.641  78.743 -34.180  0.00  0.00     0.160 HD
BRANCH  20  22
HETATM   22  C           1      16.819  79.308 -33.145  0.00  0.00     0.180 C 
BRANCH  22  23
HETATM   23  C           1      17.031  78.302 -32.041  0.00  0.00     0.070 A 
HETATM   24  C           1      18.195  78.169 -31.387  0.00  0.00     0.147 A 
HETATM   25  N           1      18.355  77.325 -30.461  0.00  0.00    -0.237 NA
HETATM   26  C           1      17.374  76.583 -30.149  0.00  0.00     0.202 A 
HETATM   27  C           1      16.196  76.708 -30.803  0.00  0.00     0.174 A 
HETATM   28  N           1      17.567  75.746 -29.214  0.00  0.00    -0.043 NA
HETATM   29  N           1      16.055  77.561 -31.732  0.00  0.00    -0.241 NA
HETATM   30  C           1      15.152  75.904 -30.459  0.00  0.00     0.292 A 
HETATM   31  O           1      14.046  75.890 -30.943  0.00  0.00    -0.265 OA
HETATM   32  N           1      15.454  75.048 -29.454  0.00  0.00    -0.152 N 
HETATM   33  C           1      16.645  74.968 -28.838  0.00  0.00     0.703 A 
HETATM   34  H           1      14.751  74.409 -29.122  0.00  0.00     0.187 HD
BRANCH  33  35
HETATM   35  N           1      16.756  74.107 -27.917  0.00  0.00    -0.233 N 
HETATM   36  H           1      16.002  73.399 -27.740  0.00  0.00     0.174 HD
HETATM   37  H           1      17.614  74.094 -27.313  0.00  0.00     0.174 HD
ENDBRANCH  33  35
ENDBRANCH  22  23
ENDBRANCH  20  22
ENDBRANCH  17  20
ENDBRANCH  11  14
ENDBRANCH   5  10
ENDBRANCH   4   5
ENDBRANCH   3   4
ENDBRANCH   1   3
BRANCH   1  38
HETATM   38  O           1      26.186  84.002 -34.249  0.00  0.00    -0.776 OA
HETATM   39  H           1      26.227  83.923 -35.216  0.00  0.00     0.167 HD
ENDBRANCH   1  38
TORSDOF 12
ENDMDL
MODEL 9
REMARK VINA RESULT:    -7.873      2.515     10.481
REMARK INTER + INTRA:         -13.909
REMARK INTER:                 -12.736
REMARK INTRA:                  -1.173
REMARK UNBOUND:                -1.204
REMARK  12 active torsions:
REMARK  status: ('A' for Active; 'I' for Inactive)
REMARK    1  A    between atoms: C_1  and  C_2 
REMARK    2  A    between atoms: C_1  and  O_32 
REMARK    3  A    between atoms: C_2  and  C_3 
REMARK    4  A    between atoms: C_3  and  C_4 
REMARK    5  A    between atoms: C_4  and  C_5 
REMARK    6  A    between atoms: C_4  and  N_8 
REMARK    7  A    between atoms: C_5  and  O_7 
REMARK       I    between atoms: N_8  and  C_9 
REMARK    8  A    between atoms: C_9  and  C_11 
REMARK    9  A    between atoms: C_16  and  N_17 
REMARK   10  A    between atoms: N_17  and  C_18 
REMARK   11  A    between atoms: C_18  and  C_19 
REMARK   12  A    between atoms: C_25  and  N_26 
ROOT
HETATM    1  C           1      22.337  84.272 -29.910  0.00  0.00     0.139 C 
HETATM    2  O           1      22.776  83.224 -30.319  0.00  0.00    -0.650 OA
ENDROOT
BRANCH   1   3
HETATM    3  C           1      22.452  85.635 -30.570  0.00  0.00     0.112 C 
BRANCH   3   4
HETATM    4  C           1      23.578  85.711 -31.615  0.00  0.00     0.046 C 
BRANCH   4   5
HETATM    5  C           1      23.105  85.561 -33.074  0.00  0.00     0.183 C 
BRANCH   5   6
HETATM    6  C           1      22.521  86.786 -33.775  0.00  0.00     0.163 C 
HETATM    7  O           1      23.173  87.593 -34.395  0.00  0.00    -0.648 OA
BRANCH   6   8
HETATM    8  O           1      21.183  86.888 -33.668  0.00  0.00    -0.775 OA
HETATM    9  H           1      20.799  85.998 -33.712  0.00  0.00     0.167 HD
ENDBRANCH   6   8
ENDBRANCH   5   6
BRANCH   5  10
HETATM   10  N           1      22.210  84.403 -33.228  0.00  0.00    -0.343 N 
HETATM   11  C           1      22.295  83.542 -34.288  0.00  0.00     0.252 C 
HETATM   12  O           1      23.165  83.699 -35.112  0.00  0.00    -0.268 OA
HETATM   13  H           1      21.472  84.272 -32.542  0.00  0.00     0.163 HD
BRANCH  11  14
HETATM   14  C           1      21.368  82.540 -34.336  0.00  0.00     0.032 A 
HETATM   15  C           1      20.465  82.410 -33.344  0.00  0.00     0.019 A 
HETATM   16  C           1      19.542  81.436 -33.359  0.00  0.00     0.030 A 
HETATM   17  C           1      19.485  80.553 -34.371  0.00  0.00     0.028 A 
HETATM   18  C           1      20.381  80.675 -35.364  0.00  0.00     0.030 A 
HETATM   19  C           1      21.305  81.651 -35.347  0.00  0.00     0.019 A 
BRANCH  17  20
HETATM   20  N           1      18.585  79.656 -34.321  0.00  0.00    -0.384 N 
HETATM   21  H           1      18.838  78.727 -34.742  0.00  0.00     0.160 HD
BRANCH  20  22
HETATM   22  C           1      17.237  79.791 -33.734  0.00  0.00     0.180 C 
BRANCH  22  23
HETATM   23  C           1      17.073  78.731 -32.674  0.00  0.00     0.070 A 
HETATM   24  C           1      17.955  78.547 -31.681  0.00  0.00     0.147 A 
HETATM   25  N           1      17.801  77.657 -30.797  0.00  0.00    -0.237 NA
HETATM   26  C           1      16.770  76.920 -30.863  0.00  0.00     0.202 A 
HETATM   27  C           1      15.875  77.096 -31.861  0.00  0.00     0.174 A 
HETATM   28  N           1      16.644  76.036 -29.960  0.00  0.00    -0.043 NA
HETATM   29  N           1      16.048  77.994 -32.740  0.00  0.00    -0.241 NA
HETATM   30  C           1      14.774  76.295 -31.920  0.00  0.00     0.292 A 
HETATM   31  O           1      13.890  76.324 -32.742  0.00  0.00    -0.265 OA
HETATM   32  N           1      14.727  75.387 -30.917  0.00  0.00    -0.152 N 
HETATM   33  C           1      15.648  75.257 -29.948  0.00  0.00     0.703 A 
HETATM   34  H           1      13.953  74.747 -30.866  0.00  0.00     0.187 HD
BRANCH  33  35
HETATM   35  N           1      15.448  74.353 -29.086  0.00  0.00    -0.233 N 
HETATM   36  H           1      15.697  73.352 -29.279  0.00  0.00     0.174 HD
HETATM   37  H           1      15.025  74.598 -28.157  0.00  0.00     0.174 HD
ENDBRANCH  33  35
ENDBRANCH  22  23
ENDBRANCH  20  22
ENDBRANCH  17  20
ENDBRANCH  11  14
ENDBRANCH   5  10
ENDBRANCH   4   5
ENDBRANCH   3   4
ENDBRANCH   1   3
BRANCH   1  38
HETATM   38  O           1      21.662  84.346 -28.745  0.00  0.00    -0.776 OA
HETATM   39  H           1      20.984  85.036 -28.828  0.00  0.00     0.167 HD
ENDBRANCH   1  38
TORSDOF 12
ENDMDL
