MODEL 1
REMARK VINA RESULT:    -6.585      0.000      0.000
REMARK INTER + INTRA:          -9.087
REMARK INTER:                  -8.217
REMARK INTRA:                  -0.870
REMARK UNBOUND:                -0.770
REMARK  Name = UMP_6N1S.pdb
REMARK  5 active torsions:
REMARK  status: ('A' for Active; 'I' for Inactive)
REMARK    1  A    between atoms: N1_1  and  C1'_9
REMARK    2  A    between atoms: C3'_11  and  O3'_13
REMARK    3  A    between atoms: C4'_12  and  C5'_15
REMARK    4  A    between atoms: C5'_15  and  O5'_16
REMARK    5  A    between atoms: O5'_16  and  P_17
REMARK                            x       y       z     vdW  Elec       q    Type
REMARK                         _______ _______ _______ _____ _____    ______ ____
ROOT
ATOM      1  C1' UMP A 701      23.585  84.991 -33.042  0.00  0.00    +0.000 C 
ATOM      2  C2' UMP A 701      23.680  84.059 -31.845  0.00  0.00    +0.000 C 
ATOM      3  C3' UMP A 701      24.704  83.056 -32.351  0.00  0.00    +0.000 C 
ATOM      4  C4' UMP A 701      24.286  82.889 -33.807  0.00  0.00    +0.000 C 
ATOM      5  O4' UMP A 701      23.668  84.142 -34.182  0.00  0.00    +0.000 OA
ENDROOT
BRANCH   1   6
ATOM      6  N1  UMP A 701      22.336  85.780 -33.148  0.00  0.00    +0.000 N 
ATOM      7  C2  UMP A 701      22.387  86.986 -33.821  0.00  0.00    +0.000 A 
ATOM      8  N3  UMP A 701      21.191  87.654 -33.895  0.00  0.00    +0.000 N 
ATOM      9  C4  UMP A 701      19.975  87.242 -33.389  0.00  0.00    +0.000 A 
ATOM     10  C5  UMP A 701      19.999  85.979 -32.715  0.00  0.00    +0.000 A 
ATOM     11  C6  UMP A 701      21.154  85.301 -32.628  0.00  0.00    +0.000 A 
ATOM     12  O2  UMP A 701      23.413  87.437 -34.311  0.00  0.00    +0.000 OA
ATOM     13  O4  UMP A 701      18.985  87.953 -33.547  0.00  0.00    +0.000 OA
ATOM     14  H3  UMP A 701      21.202  88.544 -34.371  0.00  0.00    +0.000 HD
ENDBRANCH   1   6
BRANCH   3  15
ATOM     15  O3' UMP A 701      26.025  83.586 -32.301  0.00  0.00    +0.000 OA
ATOM     16 HO3' UMP A 701      26.341  83.743 -33.193  0.00  0.00    +0.000 HD
ENDBRANCH   3  15
BRANCH   4  17
ATOM     17  C5' UMP A 701      23.328  81.754 -34.067  0.00  0.00    +0.000 C 
BRANCH  17  18
ATOM     18  O5' UMP A 701      22.236  82.245 -34.884  0.00  0.00    +0.000 OA
BRANCH  18  19
ATOM     19  P   UMP A 701      20.732  81.853 -34.479  0.00  0.00    +0.000 P 
ATOM     20  OP1 UMP A 701      19.852  82.952 -35.037  0.00  0.00    +0.000 OA
ATOM     21  OP2 UMP A 701      20.479  80.508 -35.125  0.00  0.00    +0.000 OA
ATOM     22  OP3 UMP A 701      20.723  81.797 -32.962  0.00  0.00    +0.000 OA
ENDBRANCH  18  19
ENDBRANCH  17  18
ENDBRANCH   4  17
TORSDOF 5
ENDMDL
MODEL 2
REMARK VINA RESULT:    -6.341      4.411      6.691
REMARK INTER + INTRA:          -8.779
REMARK INTER:                  -8.120
REMARK INTRA:                  -0.659
REMARK UNBOUND:                -0.770
REMARK  Name = UMP_6N1S.pdb
REMARK  5 active torsions:
REMARK  status: ('A' for Active; 'I' for Inactive)
REMARK    1  A    between atoms: N1_1  and  C1'_9
REMARK    2  A    between atoms: C3'_11  and  O3'_13
REMARK    3  A    between atoms: C4'_12  and  C5'_15
REMARK    4  A    between atoms: C5'_15  and  O5'_16
REMARK    5  A    between atoms: O5'_16  and  P_17
REMARK                            x       y       z     vdW  Elec       q    Type
REMARK                         _______ _______ _______ _____ _____    ______ ____
ROOT
ATOM      1  C1' UMP A 701      18.512  81.704 -33.747  0.00  0.00    +0.000 C 
ATOM      2  C2' UMP A 701      18.032  83.044 -33.211  0.00  0.00    +0.000 C 
ATOM      3  C3' UMP A 701      18.836  83.998 -34.081  0.00  0.00    +0.000 C 
ATOM      4  C4' UMP A 701      20.186  83.294 -34.153  0.00  0.00    +0.000 C 
ATOM      5  O4' UMP A 701      19.899  81.884 -34.010  0.00  0.00    +0.000 OA
ENDROOT
BRANCH   1   6
ATOM      6  N1  UMP A 701      18.363  80.552 -32.829  0.00  0.00    +0.000 N 
ATOM      7  C2  UMP A 701      18.127  79.308 -33.384  0.00  0.00    +0.000 A 
ATOM      8  N3  UMP A 701      18.018  78.286 -32.476  0.00  0.00    +0.000 N 
ATOM      9  C4  UMP A 701      18.133  78.375 -31.104  0.00  0.00    +0.000 A 
ATOM     10  C5  UMP A 701      18.389  79.692 -30.604  0.00  0.00    +0.000 A 
ATOM     11  C6  UMP A 701      18.503  80.713 -31.468  0.00  0.00    +0.000 A 
ATOM     12  O2  UMP A 701      18.014  79.122 -34.587  0.00  0.00    +0.000 OA
ATOM     13  O4  UMP A 701      18.020  77.358 -30.423  0.00  0.00    +0.000 OA
ATOM     14  H3  UMP A 701      17.833  77.367 -32.854  0.00  0.00    +0.000 HD
ENDBRANCH   1   6
BRANCH   3  15
ATOM     15  O3' UMP A 701      18.289  84.097 -35.392  0.00  0.00    +0.000 OA
ATOM     16 HO3' UMP A 701      17.470  84.598 -35.360  0.00  0.00    +0.000 HD
ENDBRANCH   3  15
BRANCH   4  17
ATOM     17  C5' UMP A 701      21.180  83.718 -33.103  0.00  0.00    +0.000 C 
BRANCH  17  18
ATOM     18  O5' UMP A 701      22.513  83.641 -33.665  0.00  0.00    +0.000 OA
BRANCH  18  19
ATOM     19  P   UMP A 701      23.480  82.445 -33.201  0.00  0.00    +0.000 P 
ATOM     20  OP1 UMP A 701      23.528  81.475 -34.364  0.00  0.00    +0.000 OA
ATOM     21  OP2 UMP A 701      24.817  83.096 -32.919  0.00  0.00    +0.000 OA
ATOM     22  OP3 UMP A 701      22.829  81.857 -31.963  0.00  0.00    +0.000 OA
ENDBRANCH  18  19
ENDBRANCH  17  18
ENDBRANCH   4  17
TORSDOF 5
ENDMDL
MODEL 3
REMARK VINA RESULT:    -6.271      3.539      4.795
REMARK INTER + INTRA:          -8.691
REMARK INTER:                  -8.013
REMARK INTRA:                  -0.678
REMARK UNBOUND:                -0.770
REMARK  Name = UMP_6N1S.pdb
REMARK  5 active torsions:
REMARK  status: ('A' for Active; 'I' for Inactive)
REMARK    1  A    between atoms: N1_1  and  C1'_9
REMARK    2  A    between atoms: C3'_11  and  O3'_13
REMARK    3  A    between atoms: C4'_12  and  C5'_15
REMARK    4  A    between atoms: C5'_15  and  O5'_16
REMARK    5  A    between atoms: O5'_16  and  P_17
REMARK                            x       y       z     vdW  Elec       q    Type
REMARK                         _______ _______ _______ _____ _____    ______ ____
ROOT
ATOM      1  C1' UMP A 701      20.014  84.645 -30.602  0.00  0.00    +0.000 C 
ATOM      2  C2' UMP A 701      20.923  83.883 -29.649  0.00  0.00    +0.000 C 
ATOM      3  C3' UMP A 701      22.076  84.865 -29.516  0.00  0.00    +0.000 C 
ATOM      4  C4' UMP A 701      22.213  85.382 -30.943  0.00  0.00    +0.000 C 
ATOM      5  O4' UMP A 701      20.892  85.281 -31.524  0.00  0.00    +0.000 OA
ENDROOT
BRANCH   1   6
ATOM      6  N1  UMP A 701      19.054  83.822 -31.373  0.00  0.00    +0.000 N 
ATOM      7  C2  UMP A 701      17.879  83.446 -30.752  0.00  0.00    +0.000 A 
ATOM      8  N3  UMP A 701      17.030  82.701 -31.531  0.00  0.00    +0.000 N 
ATOM      9  C4  UMP A 701      17.226  82.315 -32.842  0.00  0.00    +0.000 A 
ATOM     10  C5  UMP A 701      18.461  82.752 -33.421  0.00  0.00    +0.000 A 
ATOM     11  C6  UMP A 701      19.311  83.484 -32.684  0.00  0.00    +0.000 A 
ATOM     12  O2  UMP A 701      17.607  83.740 -29.596  0.00  0.00    +0.000 OA
ATOM     13  O4  UMP A 701      16.360  81.654 -33.410  0.00  0.00    +0.000 OA
ATOM     14  H3  UMP A 701      16.168  82.401 -31.098  0.00  0.00    +0.000 HD
ENDBRANCH   1   6
BRANCH   3  15
ATOM     15  O3' UMP A 701      21.742  85.949 -28.655  0.00  0.00    +0.000 OA
ATOM     16 HO3' UMP A 701      22.481  86.561 -28.609  0.00  0.00    +0.000 HD
ENDBRANCH   3  15
BRANCH   4  17
ATOM     17  C5' UMP A 701      23.202  84.632 -31.799  0.00  0.00    +0.000 C 
BRANCH  17  18
ATOM     18  O5' UMP A 701      22.613  84.409 -33.103  0.00  0.00    +0.000 OA
BRANCH  18  19
ATOM     19  P   UMP A 701      23.022  83.087 -33.920  0.00  0.00    +0.000 P 
ATOM     20  OP1 UMP A 701      22.356  83.213 -35.274  0.00  0.00    +0.000 OA
ATOM     21  OP2 UMP A 701      24.533  83.115 -33.999  0.00  0.00    +0.000 OA
ATOM     22  OP3 UMP A 701      22.488  81.926 -33.101  0.00  0.00    +0.000 OA
ENDBRANCH  18  19
ENDBRANCH  17  18
ENDBRANCH   4  17
TORSDOF 5
ENDMDL
MODEL 4
REMARK VINA RESULT:    -6.231      3.047      4.254
REMARK INTER + INTRA:          -8.640
REMARK INTER:                  -7.988
REMARK INTRA:                  -0.652
REMARK UNBOUND:                -0.770
REMARK  Name = UMP_6N1S.pdb
REMARK  5 active torsions:
REMARK  status: ('A' for Active; 'I' for Inactive)
REMARK    1  A    between atoms: N1_1  and  C1'_9
REMARK    2  A    between atoms: C3'_11  and  O3'_13
REMARK    3  A    between atoms: C4'_12  and  C5'_15
REMARK    4  A    between atoms: C5'_15  and  O5'_16
REMARK    5  A    between atoms: O5'_16  and  P_17
REMARK                            x       y       z     vdW  Elec       q    Type
REMARK                         _______ _______ _______ _____ _____    ______ ____
ROOT
ATOM      1  C1' UMP A 701      23.098  83.661 -31.521  0.00  0.00    +0.000 C 
ATOM      2  C2' UMP A 701      23.595  82.563 -32.449  0.00  0.00    +0.000 C 
ATOM      3  C3' UMP A 701      24.705  83.298 -33.183  0.00  0.00    +0.000 C 
ATOM      4  C4' UMP A 701      24.086  84.675 -33.389  0.00  0.00    +0.000 C 
ATOM      5  O4' UMP A 701      23.161  84.856 -32.292  0.00  0.00    +0.000 OA
ENDROOT
BRANCH   1   6
ATOM      6  N1  UMP A 701      21.711  83.508 -31.025  0.00  0.00    +0.000 N 
ATOM      7  C2  UMP A 701      21.372  84.142 -29.844  0.00  0.00    +0.000 A 
ATOM      8  N3  UMP A 701      20.068  83.971 -29.455  0.00  0.00    +0.000 N 
ATOM      9  C4  UMP A 701      19.087  83.260 -30.116  0.00  0.00    +0.000 A 
ATOM     10  C5  UMP A 701      19.511  82.641 -31.336  0.00  0.00    +0.000 A 
ATOM     11  C6  UMP A 701      20.780  82.792 -31.745  0.00  0.00    +0.000 A 
ATOM     12  O2  UMP A 701      22.164  84.801 -29.186  0.00  0.00    +0.000 OA
ATOM     13  O4  UMP A 701      17.956  83.209 -29.640  0.00  0.00    +0.000 OA
ATOM     14  H3  UMP A 701      19.795  84.414 -28.589  0.00  0.00    +0.000 HD
ENDBRANCH   1   6
BRANCH   3  15
ATOM     15  O3' UMP A 701      25.871  83.424 -32.376  0.00  0.00    +0.000 OA
ATOM     16 HO3' UMP A 701      26.282  82.562 -32.269  0.00  0.00    +0.000 HD
ENDBRANCH   3  15
BRANCH   4  17
ATOM     17  C5' UMP A 701      23.361  84.857 -34.698  0.00  0.00    +0.000 C 
BRANCH  17  18
ATOM     18  O5' UMP A 701      22.062  85.441 -34.434  0.00  0.00    +0.000 OA
BRANCH  18  19
ATOM     19  P   UMP A 701      21.763  86.930 -34.957  0.00  0.00    +0.000 P 
ATOM     20  OP1 UMP A 701      23.025  87.725 -34.692  0.00  0.00    +0.000 OA
ATOM     21  OP2 UMP A 701      21.455  86.784 -36.432  0.00  0.00    +0.000 OA
ATOM     22  OP3 UMP A 701      20.576  87.412 -34.145  0.00  0.00    +0.000 OA
ENDBRANCH  18  19
ENDBRANCH  17  18
ENDBRANCH   4  17
TORSDOF 5
ENDMDL
MODEL 5
REMARK VINA RESULT:    -6.124      2.058      2.604
REMARK INTER + INTRA:          -8.504
REMARK INTER:                  -7.880
REMARK INTRA:                  -0.624
REMARK UNBOUND:                -0.770
REMARK  Name = UMP_6N1S.pdb
REMARK  5 active torsions:
REMARK  status: ('A' for Active; 'I' for Inactive)
REMARK    1  A    between atoms: N1_1  and  C1'_9
REMARK    2  A    between atoms: C3'_11  and  O3'_13
REMARK    3  A    between atoms: C4'_12  and  C5'_15
REMARK    4  A    between atoms: C5'_15  and  O5'_16
REMARK    5  A    between atoms: O5'_16  and  P_17
REMARK                            x       y       z     vdW  Elec       q    Type
REMARK                         _______ _______ _______ _____ _____    ______ ____
ROOT
ATOM      1  C1' UMP A 701      22.847  84.069 -34.198  0.00  0.00    +0.000 C 
ATOM      2  C2' UMP A 701      22.249  83.531 -32.907  0.00  0.00    +0.000 C 
ATOM      3  C3' UMP A 701      22.437  82.036 -33.112  0.00  0.00    +0.000 C 
ATOM      4  C4' UMP A 701      22.107  81.880 -34.592  0.00  0.00    +0.000 C 
ATOM      5  O4' UMP A 701      22.451  83.144 -35.204  0.00  0.00    +0.000 OA
ENDROOT
BRANCH   1   6
ATOM      6  N1  UMP A 701      22.392  85.417 -34.607  0.00  0.00    +0.000 N 
ATOM      7  C2  UMP A 701      23.245  86.482 -34.388  0.00  0.00    +0.000 A 
ATOM      8  N3  UMP A 701      22.766  87.697 -34.808  0.00  0.00    +0.000 N 
ATOM      9  C4  UMP A 701      21.556  87.948 -35.422  0.00  0.00    +0.000 A 
ATOM     10  C5  UMP A 701      20.732  86.794 -35.626  0.00  0.00    +0.000 A 
ATOM     11  C6  UMP A 701      21.175  85.591 -35.228  0.00  0.00    +0.000 A 
ATOM     12  O2  UMP A 701      24.340  86.366 -33.856  0.00  0.00    +0.000 OA
ATOM     13  O4  UMP A 701      21.274  89.098 -35.750  0.00  0.00    +0.000 OA
ATOM     14  H3  UMP A 701      23.364  88.496 -34.649  0.00  0.00    +0.000 HD
ENDBRANCH   1   6
BRANCH   3  15
ATOM     15  O3' UMP A 701      23.786  81.644 -32.888  0.00  0.00    +0.000 OA
ATOM     16 HO3' UMP A 701      23.839  81.122 -32.084  0.00  0.00    +0.000 HD
ENDBRANCH   3  15
BRANCH   4  17
ATOM     17  C5' UMP A 701      20.668  81.546 -34.891  0.00  0.00    +0.000 C 
BRANCH  17  18
ATOM     18  O5' UMP A 701      19.945  81.442 -33.640  0.00  0.00    +0.000 OA
BRANCH  18  19
ATOM     19  P   UMP A 701      18.613  82.318 -33.441  0.00  0.00    +0.000 P 
ATOM     20  OP1 UMP A 701      17.460  81.337 -33.487  0.00  0.00    +0.000 OA
ATOM     21  OP2 UMP A 701      18.768  82.984 -32.091  0.00  0.00    +0.000 OA
ATOM     22  OP3 UMP A 701      18.602  83.303 -34.595  0.00  0.00    +0.000 OA
ENDBRANCH  18  19
ENDBRANCH  17  18
ENDBRANCH   4  17
TORSDOF 5
ENDMDL
MODEL 6
REMARK VINA RESULT:    -6.101      2.931      4.685
REMARK INTER + INTRA:          -8.475
REMARK INTER:                  -7.705
REMARK INTRA:                  -0.770
REMARK UNBOUND:                -0.770
REMARK  Name = UMP_6N1S.pdb
REMARK  5 active torsions:
REMARK  status: ('A' for Active; 'I' for Inactive)
REMARK    1  A    between atoms: N1_1  and  C1'_9
REMARK    2  A    between atoms: C3'_11  and  O3'_13
REMARK    3  A    between atoms: C4'_12  and  C5'_15
REMARK    4  A    between atoms: C5'_15  and  O5'_16
REMARK    5  A    between atoms: O5'_16  and  P_17
REMARK                            x       y       z     vdW  Elec       q    Type
REMARK                         _______ _______ _______ _____ _____    ______ ____
ROOT
ATOM      1  C1' UMP A 701      22.815  84.136 -32.926  0.00  0.00    +0.000 C 
ATOM      2  C2' UMP A 701      22.470  85.610 -33.064  0.00  0.00    +0.000 C 
ATOM      3  C3' UMP A 701      22.894  86.127 -31.699  0.00  0.00    +0.000 C 
ATOM      4  C4' UMP A 701      22.433  85.000 -30.781  0.00  0.00    +0.000 C 
ATOM      5  O4' UMP A 701      22.477  83.799 -31.585  0.00  0.00    +0.000 OA
ENDROOT
BRANCH   1   6
ATOM      6  N1  UMP A 701      22.086  83.216 -33.829  0.00  0.00    +0.000 N 
ATOM      7  C2  UMP A 701      22.769  82.123 -34.329  0.00  0.00    +0.000 A 
ATOM      8  N3  UMP A 701      22.027  81.305 -35.143  0.00  0.00    +0.000 N 
ATOM      9  C4  UMP A 701      20.699  81.456 -35.488  0.00  0.00    +0.000 A 
ATOM     10  C5  UMP A 701      20.056  82.604 -34.923  0.00  0.00    +0.000 A 
ATOM     11  C6  UMP A 701      20.756  83.422 -34.121  0.00  0.00    +0.000 A 
ATOM     12  O2  UMP A 701      23.944  81.896 -34.079  0.00  0.00    +0.000 OA
ATOM     13  O4  UMP A 701      20.170  80.627 -36.224  0.00  0.00    +0.000 OA
ATOM     14  H3  UMP A 701      22.505  80.505 -35.532  0.00  0.00    +0.000 HD
ENDBRANCH   1   6
BRANCH   3  15
ATOM     15  O3' UMP A 701      24.308  86.258 -31.606  0.00  0.00    +0.000 OA
ATOM     16 HO3' UMP A 701      24.689  85.429 -31.306  0.00  0.00    +0.000 HD
ENDBRANCH   3  15
BRANCH   4  17
ATOM     17  C5' UMP A 701      21.051  85.174 -30.205  0.00  0.00    +0.000 C 
BRANCH  17  18
ATOM     18  O5' UMP A 701      20.552  83.879 -29.792  0.00  0.00    +0.000 OA
BRANCH  18  19
ATOM     19  P   UMP A 701      19.197  83.325 -30.453  0.00  0.00    +0.000 P 
ATOM     20  OP1 UMP A 701      18.215  83.161 -29.311  0.00  0.00    +0.000 OA
ATOM     21  OP2 UMP A 701      18.773  84.384 -31.448  0.00  0.00    +0.000 OA
ATOM     22  OP3 UMP A 701      19.574  82.009 -31.106  0.00  0.00    +0.000 OA
ENDBRANCH  18  19
ENDBRANCH  17  18
ENDBRANCH   4  17
TORSDOF 5
ENDMDL
MODEL 7
REMARK VINA RESULT:    -6.070      2.770      4.606
REMARK INTER + INTRA:          -8.437
REMARK INTER:                  -7.576
REMARK INTRA:                  -0.861
REMARK UNBOUND:                -0.770
REMARK  Name = UMP_6N1S.pdb
REMARK  5 active torsions:
REMARK  status: ('A' for Active; 'I' for Inactive)
REMARK    1  A    between atoms: N1_1  and  C1'_9
REMARK    2  A    between atoms: C3'_11  and  O3'_13
REMARK    3  A    between atoms: C4'_12  and  C5'_15
REMARK    4  A    between atoms: C5'_15  and  O5'_16
REMARK    5  A    between atoms: O5'_16  and  P_17
REMARK                            x       y       z     vdW  Elec       q    Type
REMARK                         _______ _______ _______ _____ _____    ______ ____
ROOT
ATOM      1  C1' UMP A 701      22.668  83.832 -33.584  0.00  0.00    +0.000 C 
ATOM      2  C2' UMP A 701      23.340  83.953 -34.943  0.00  0.00    +0.000 C 
ATOM      3  C3' UMP A 701      24.474  84.910 -34.611  0.00  0.00    +0.000 C 
ATOM      4  C4' UMP A 701      23.791  85.888 -33.662  0.00  0.00    +0.000 C 
ATOM      5  O4' UMP A 701      22.738  85.136 -33.017  0.00  0.00    +0.000 OA
ENDROOT
BRANCH   1   6
ATOM      6  N1  UMP A 701      21.248  83.414 -33.601  0.00  0.00    +0.000 N 
ATOM      7  C2  UMP A 701      20.779  82.668 -32.535  0.00  0.00    +0.000 A 
ATOM      8  N3  UMP A 701      19.451  82.331 -32.610  0.00  0.00    +0.000 N 
ATOM      9  C4  UMP A 701      18.561  82.668 -33.609  0.00  0.00    +0.000 A 
ATOM     10  C5  UMP A 701      19.117  83.451 -34.673  0.00  0.00    +0.000 A 
ATOM     11  C6  UMP A 701      20.413  83.798 -34.627  0.00  0.00    +0.000 A 
ATOM     12  O2  UMP A 701      21.484  82.322 -31.598  0.00  0.00    +0.000 OA
ATOM     13  O4  UMP A 701      17.393  82.297 -33.526  0.00  0.00    +0.000 OA
ATOM     14  H3  UMP A 701      19.085  81.776 -31.850  0.00  0.00    +0.000 HD
ENDBRANCH   1   6
BRANCH   3  15
ATOM     15  O3' UMP A 701      25.530  84.249 -33.922  0.00  0.00    +0.000 OA
ATOM     16 HO3' UMP A 701      26.317  84.799 -33.938  0.00  0.00    +0.000 HD
ENDBRANCH   3  15
BRANCH   4  17
ATOM     17  C5' UMP A 701      23.208  87.112 -34.323  0.00  0.00    +0.000 C 
BRANCH  17  18
ATOM     18  O5' UMP A 701      21.864  87.316 -33.821  0.00  0.00    +0.000 OA
BRANCH  18  19
ATOM     19  P   UMP A 701      20.691  87.649 -34.867  0.00  0.00    +0.000 P 
ATOM     20  OP1 UMP A 701      21.035  86.893 -36.133  0.00  0.00    +0.000 OA
ATOM     21  OP2 UMP A 701      19.418  87.157 -34.213  0.00  0.00    +0.000 OA
ATOM     22  OP3 UMP A 701      20.726  89.155 -35.046  0.00  0.00    +0.000 OA
ENDBRANCH  18  19
ENDBRANCH  17  18
ENDBRANCH   4  17
TORSDOF 5
ENDMDL
MODEL 8
REMARK VINA RESULT:    -6.069      2.942      5.295
REMARK INTER + INTRA:          -8.435
REMARK INTER:                  -7.618
REMARK INTRA:                  -0.817
REMARK UNBOUND:                -0.770
REMARK  Name = UMP_6N1S.pdb
REMARK  5 active torsions:
REMARK  status: ('A' for Active; 'I' for Inactive)
REMARK    1  A    between atoms: N1_1  and  C1'_9
REMARK    2  A    between atoms: C3'_11  and  O3'_13
REMARK    3  A    between atoms: C4'_12  and  C5'_15
REMARK    4  A    between atoms: C5'_15  and  O5'_16
REMARK    5  A    between atoms: O5'_16  and  P_17
REMARK                            x       y       z     vdW  Elec       q    Type
REMARK                         _______ _______ _______ _____ _____    ______ ____
ROOT
ATOM      1  C1' UMP A 701      21.045  83.241 -31.267  0.00  0.00    +0.000 C 
ATOM      2  C2' UMP A 701      22.435  83.250 -30.649  0.00  0.00    +0.000 C 
ATOM      3  C3' UMP A 701      22.364  84.520 -29.817  0.00  0.00    +0.000 C 
ATOM      4  C4' UMP A 701      21.597  85.458 -30.743  0.00  0.00    +0.000 C 
ATOM      5  O4' UMP A 701      20.758  84.605 -31.555  0.00  0.00    +0.000 OA
ENDROOT
BRANCH   1   6
ATOM      6  N1  UMP A 701      20.902  82.467 -32.522  0.00  0.00    +0.000 N 
ATOM      7  C2  UMP A 701      19.694  81.839 -32.760  0.00  0.00    +0.000 A 
ATOM      8  N3  UMP A 701      19.627  81.156 -33.948  0.00  0.00    +0.000 N 
ATOM      9  C4  UMP A 701      20.615  81.051 -34.905  0.00  0.00    +0.000 A 
ATOM     10  C5  UMP A 701      21.833  81.736 -34.592  0.00  0.00    +0.000 A 
ATOM     11  C6  UMP A 701      21.928  82.415 -33.438  0.00  0.00    +0.000 A 
ATOM     12  O2  UMP A 701      18.754  81.876 -31.979  0.00  0.00    +0.000 OA
ATOM     13  O4  UMP A 701      20.396  80.407 -35.928  0.00  0.00    +0.000 OA
ATOM     14  H3  UMP A 701      18.759  80.677 -34.143  0.00  0.00    +0.000 HD
ENDBRANCH   1   6
BRANCH   3  15
ATOM     15  O3' UMP A 701      21.613  84.322 -28.624  0.00  0.00    +0.000 OA
ATOM     16 HO3' UMP A 701      21.715  83.415 -28.328  0.00  0.00    +0.000 HD
ENDBRANCH   3  15
BRANCH   4  17
ATOM     17  C5' UMP A 701      22.459  86.317 -31.633  0.00  0.00    +0.000 C 
BRANCH  17  18
ATOM     18  O5' UMP A 701      21.879  86.341 -32.960  0.00  0.00    +0.000 OA
BRANCH  18  19
ATOM     19  P   UMP A 701      22.857  86.270 -34.233  0.00  0.00    +0.000 P 
ATOM     20  OP1 UMP A 701      23.129  87.706 -34.629  0.00  0.00    +0.000 OA
ATOM     21  OP2 UMP A 701      24.095  85.546 -33.749  0.00  0.00    +0.000 OA
ATOM     22  OP3 UMP A 701      22.089  85.497 -35.289  0.00  0.00    +0.000 OA
ENDBRANCH  18  19
ENDBRANCH  17  18
ENDBRANCH   4  17
TORSDOF 5
ENDMDL
MODEL 9
REMARK VINA RESULT:    -6.068      2.274      4.389
REMARK INTER + INTRA:          -8.434
REMARK INTER:                  -7.665
REMARK INTRA:                  -0.769
REMARK UNBOUND:                -0.770
REMARK  Name = UMP_6N1S.pdb
REMARK  5 active torsions:
REMARK  status: ('A' for Active; 'I' for Inactive)
REMARK    1  A    between atoms: N1_1  and  C1'_9
REMARK    2  A    between atoms: C3'_11  and  O3'_13
REMARK    3  A    between atoms: C4'_12  and  C5'_15
REMARK    4  A    between atoms: C5'_15  and  O5'_16
REMARK    5  A    between atoms: O5'_16  and  P_17
REMARK                            x       y       z     vdW  Elec       q    Type
REMARK                         _______ _______ _______ _____ _____    ______ ____
ROOT
ATOM      1  C1' UMP A 701      21.886  84.171 -31.616  0.00  0.00    +0.000 C 
ATOM      2  C2' UMP A 701      20.681  85.029 -31.967  0.00  0.00    +0.000 C 
ATOM      3  C3' UMP A 701      19.583  84.289 -31.220  0.00  0.00    +0.000 C 
ATOM      4  C4' UMP A 701      19.968  82.834 -31.459  0.00  0.00    +0.000 C 
ATOM      5  O4' UMP A 701      21.404  82.832 -31.624  0.00  0.00    +0.000 OA
ENDROOT
BRANCH   1   6
ATOM      6  N1  UMP A 701      23.031  84.254 -32.552  0.00  0.00    +0.000 N 
ATOM      7  C2  UMP A 701      24.180  83.555 -32.232  0.00  0.00    +0.000 A 
ATOM      8  N3  UMP A 701      25.192  83.663 -33.152  0.00  0.00    +0.000 N 
ATOM      9  C4  UMP A 701      25.169  84.369 -34.338  0.00  0.00    +0.000 A 
ATOM     10  C5  UMP A 701      23.941  85.057 -34.605  0.00  0.00    +0.000 A 
ATOM     11  C6  UMP A 701      22.932  84.969 -33.725  0.00  0.00    +0.000 A 
ATOM     12  O2  UMP A 701      24.301  82.895 -31.210  0.00  0.00    +0.000 OA
ATOM     13  O4  UMP A 701      26.159  84.358 -35.064  0.00  0.00    +0.000 OA
ATOM     14  H3  UMP A 701      26.049  83.171 -32.938  0.00  0.00    +0.000 HD
ENDBRANCH   1   6
BRANCH   3  15
ATOM     15  O3' UMP A 701      19.625  84.562 -29.824  0.00  0.00    +0.000 OA
ATOM     16 HO3' UMP A 701      19.063  85.315 -29.627  0.00  0.00    +0.000 HD
ENDBRANCH   3  15
BRANCH   4  17
ATOM     17  C5' UMP A 701      19.319  82.193 -32.659  0.00  0.00    +0.000 C 
BRANCH  17  18
ATOM     18  O5' UMP A 701      20.304  81.380 -33.342  0.00  0.00    +0.000 OA
BRANCH  18  19
ATOM     19  P   UMP A 701      20.755  81.794 -34.827  0.00  0.00    +0.000 P 
ATOM     20  OP1 UMP A 701      20.122  80.776 -35.753  0.00  0.00    +0.000 OA
ATOM     21  OP2 UMP A 701      20.218  83.195 -35.034  0.00  0.00    +0.000 OA
ATOM     22  OP3 UMP A 701      22.271  81.731 -34.821  0.00  0.00    +0.000 OA
ENDBRANCH  18  19
ENDBRANCH  17  18
ENDBRANCH   4  17
TORSDOF 5
ENDMDL
