MODEL 1
REMARK VINA RESULT:    -6.878      0.000      0.000
REMARK INTER + INTRA:          -9.104
REMARK INTER:                  -8.231
REMARK INTRA:                  -0.873
REMARK UNBOUND:                -0.417
REMARK  Name = UMP_6N1S.pdb
REMARK  5 active torsions:
REMARK  status: ('A' for Active; 'I' for Inactive)
REMARK    1  A    between atoms: N1_1  and  C1'_9
REMARK    2  A    between atoms: C3'_11  and  O3'_13
REMARK    3  A    between atoms: C4'_12  and  C5'_15
REMARK    4  A    between atoms: C5'_15  and  O5'_16
REMARK    5  A    between atoms: O5'_16  and  P_17
REMARK                            x       y       z     vdW  Elec       q    Type
REMARK                         _______ _______ _______ _____ _____    ______ ____
ROOT
ATOM      1  C1' UMP A 701      23.558  84.983 -33.057  0.00  0.00    +0.000 C 
ATOM      2  C2' UMP A 701      23.665  84.061 -31.852  0.00  0.00    +0.000 C 
ATOM      3  C3' UMP A 701      24.669  83.042 -32.367  0.00  0.00    +0.000 C 
ATOM      4  C4' UMP A 701      24.223  82.867 -33.814  0.00  0.00    +0.000 C 
ATOM      5  O4' UMP A 701      23.612  84.123 -34.189  0.00  0.00    +0.000 OA
ENDROOT
BRANCH   1   6
ATOM      6  N1  UMP A 701      22.316  85.784 -33.147  0.00  0.00    +0.000 N 
ATOM      7  C2  UMP A 701      22.374  86.994 -33.813  0.00  0.00    +0.000 A 
ATOM      8  N3  UMP A 701      21.183  87.674 -33.873  0.00  0.00    +0.000 N 
ATOM      9  C4  UMP A 701      19.967  87.270 -33.361  0.00  0.00    +0.000 A 
ATOM     10  C5  UMP A 701      19.984  86.002 -32.696  0.00  0.00    +0.000 A 
ATOM     11  C6  UMP A 701      21.133  85.312 -32.623  0.00  0.00    +0.000 A 
ATOM     12  O2  UMP A 701      23.400  87.439 -34.307  0.00  0.00    +0.000 OA
ATOM     13  O4  UMP A 701      18.983  87.991 -33.507  0.00  0.00    +0.000 OA
ATOM     14  H3  UMP A 701      21.199  88.568 -34.344  0.00  0.00    +0.000 HD
ENDBRANCH   1   6
BRANCH   3  15
ATOM     15  O3' UMP A 701      25.995  83.558 -32.344  0.00  0.00    +0.000 OA
ATOM     16 HO3' UMP A 701      26.332  83.615 -33.242  0.00  0.00    +0.000 HD
ENDBRANCH   3  15
BRANCH   4  17
ATOM     17  C5' UMP A 701      23.249  81.740 -34.047  0.00  0.00    +0.000 C 
BRANCH  17  18
ATOM     18  O5' UMP A 701      22.144  82.237 -34.841  0.00  0.00    +0.000 OA
BRANCH  18  19
ATOM     19  P   UMP A 701      20.646  81.852 -34.407  0.00  0.00    +0.000 P 
ATOM     20  OP1 UMP A 701      19.761  82.959 -34.942  0.00  0.00    +0.000 OA
ATOM     21  OP2 UMP A 701      20.372  80.511 -35.053  0.00  0.00    +0.000 OA
ATOM     22  OP3 UMP A 701      20.668  81.790 -32.891  0.00  0.00    +0.000 OA
ENDBRANCH  18  19
ENDBRANCH  17  18
ENDBRANCH   4  17
TORSDOF 5
ENDMDL
MODEL 2
REMARK VINA RESULT:    -6.584      4.392      6.684
REMARK INTER + INTRA:          -8.733
REMARK INTER:                  -8.072
REMARK INTRA:                  -0.661
REMARK UNBOUND:                -0.417
REMARK  Name = UMP_6N1S.pdb
REMARK  5 active torsions:
REMARK  status: ('A' for Active; 'I' for Inactive)
REMARK    1  A    between atoms: N1_1  and  C1'_9
REMARK    2  A    between atoms: C3'_11  and  O3'_13
REMARK    3  A    between atoms: C4'_12  and  C5'_15
REMARK    4  A    between atoms: C5'_15  and  O5'_16
REMARK    5  A    between atoms: O5'_16  and  P_17
REMARK                            x       y       z     vdW  Elec       q    Type
REMARK                         _______ _______ _______ _____ _____    ______ ____
ROOT
ATOM      1  C1' UMP A 701      18.529  81.710 -33.732  0.00  0.00    +0.000 C 
ATOM      2  C2' UMP A 701      18.023  83.041 -33.199  0.00  0.00    +0.000 C 
ATOM      3  C3' UMP A 701      18.842  84.009 -34.038  0.00  0.00    +0.000 C 
ATOM      4  C4' UMP A 701      20.200  83.318 -34.077  0.00  0.00    +0.000 C 
ATOM      5  O4' UMP A 701      19.922  81.904 -33.954  0.00  0.00    +0.000 OA
ENDROOT
BRANCH   1   6
ATOM      6  N1  UMP A 701      18.365  80.549 -32.828  0.00  0.00    +0.000 N 
ATOM      7  C2  UMP A 701      18.129  79.312 -33.399  0.00  0.00    +0.000 A 
ATOM      8  N3  UMP A 701      18.005  78.281 -32.503  0.00  0.00    +0.000 N 
ATOM      9  C4  UMP A 701      18.105  78.354 -31.129  0.00  0.00    +0.000 A 
ATOM     10  C5  UMP A 701      18.362  79.665 -30.612  0.00  0.00    +0.000 A 
ATOM     11  C6  UMP A 701      18.490  80.695 -31.464  0.00  0.00    +0.000 A 
ATOM     12  O2  UMP A 701      18.029  79.139 -34.605  0.00  0.00    +0.000 OA
ATOM     13  O4  UMP A 701      17.980  77.331 -30.460  0.00  0.00    +0.000 OA
ATOM     14  H3  UMP A 701      17.820  77.367 -32.892  0.00  0.00    +0.000 HD
ENDBRANCH   1   6
BRANCH   3  15
ATOM     15  O3' UMP A 701      18.331  84.115 -35.362  0.00  0.00    +0.000 OA
ATOM     16 HO3' UMP A 701      18.069  85.022 -35.534  0.00  0.00    +0.000 HD
ENDBRANCH   3  15
BRANCH   4  17
ATOM     17  C5' UMP A 701      21.160  83.742 -32.996  0.00  0.00    +0.000 C 
BRANCH  17  18
ATOM     18  O5' UMP A 701      22.508  83.691 -33.524  0.00  0.00    +0.000 OA
BRANCH  18  19
ATOM     19  P   UMP A 701      23.474  82.492 -33.067  0.00  0.00    +0.000 P 
ATOM     20  OP1 UMP A 701      22.847  81.906 -31.819  0.00  0.00    +0.000 OA
ATOM     21  OP2 UMP A 701      23.490  81.523 -34.231  0.00  0.00    +0.000 OA
ATOM     22  OP3 UMP A 701      24.823  83.136 -32.809  0.00  0.00    +0.000 OA
ENDBRANCH  18  19
ENDBRANCH  17  18
ENDBRANCH   4  17
TORSDOF 5
ENDMDL
MODEL 3
REMARK VINA RESULT:    -6.546      3.542      4.867
REMARK INTER + INTRA:          -8.685
REMARK INTER:                  -8.013
REMARK INTRA:                  -0.672
REMARK UNBOUND:                -0.417
REMARK  Name = UMP_6N1S.pdb
REMARK  5 active torsions:
REMARK  status: ('A' for Active; 'I' for Inactive)
REMARK    1  A    between atoms: N1_1  and  C1'_9
REMARK    2  A    between atoms: C3'_11  and  O3'_13
REMARK    3  A    between atoms: C4'_12  and  C5'_15
REMARK    4  A    between atoms: C5'_15  and  O5'_16
REMARK    5  A    between atoms: O5'_16  and  P_17
REMARK                            x       y       z     vdW  Elec       q    Type
REMARK                         _______ _______ _______ _____ _____    ______ ____
ROOT
ATOM      1  C1' UMP A 701      20.005  84.610 -30.598  0.00  0.00    +0.000 C 
ATOM      2  C2' UMP A 701      20.944  83.856 -29.669  0.00  0.00    +0.000 C 
ATOM      3  C3' UMP A 701      22.078  84.859 -29.542  0.00  0.00    +0.000 C 
ATOM      4  C4' UMP A 701      22.182  85.396 -30.964  0.00  0.00    +0.000 C 
ATOM      5  O4' UMP A 701      20.855  85.275 -31.525  0.00  0.00    +0.000 OA
ENDROOT
BRANCH   1   6
ATOM      6  N1  UMP A 701      19.050  83.777 -31.365  0.00  0.00    +0.000 N 
ATOM      7  C2  UMP A 701      17.867  83.415 -30.748  0.00  0.00    +0.000 A 
ATOM      8  N3  UMP A 701      17.024  82.660 -31.523  0.00  0.00    +0.000 N 
ATOM      9  C4  UMP A 701      17.230  82.252 -32.825  0.00  0.00    +0.000 A 
ATOM     10  C5  UMP A 701      18.472  82.675 -33.399  0.00  0.00    +0.000 A 
ATOM     11  C6  UMP A 701      19.318  83.417 -32.667  0.00  0.00    +0.000 A 
ATOM     12  O2  UMP A 701      17.586  83.730 -29.601  0.00  0.00    +0.000 OA
ATOM     13  O4  UMP A 701      16.369  81.583 -33.391  0.00  0.00    +0.000 OA
ATOM     14  H3  UMP A 701      16.156  82.370 -31.093  0.00  0.00    +0.000 HD
ENDBRANCH   1   6
BRANCH   3  15
ATOM     15  O3' UMP A 701      21.737  85.925 -28.662  0.00  0.00    +0.000 OA
ATOM     16 HO3' UMP A 701      22.299  86.683 -28.843  0.00  0.00    +0.000 HD
ENDBRANCH   3  15
BRANCH   4  17
ATOM     17  C5' UMP A 701      23.173  84.677 -31.844  0.00  0.00    +0.000 C 
BRANCH  17  18
ATOM     18  O5' UMP A 701      22.575  84.475 -33.148  0.00  0.00    +0.000 OA
BRANCH  18  19
ATOM     19  P   UMP A 701      23.080  83.243 -34.047  0.00  0.00    +0.000 P 
ATOM     20  OP1 UMP A 701      22.505  81.997 -33.406  0.00  0.00    +0.000 OA
ATOM     21  OP2 UMP A 701      22.528  83.503 -35.432  0.00  0.00    +0.000 OA
ATOM     22  OP3 UMP A 701      24.596  83.296 -33.990  0.00  0.00    +0.000 OA
ENDBRANCH  18  19
ENDBRANCH  17  18
ENDBRANCH   4  17
TORSDOF 5
ENDMDL
MODEL 4
REMARK VINA RESULT:    -6.435      3.058      4.318
REMARK INTER + INTRA:          -8.545
REMARK INTER:                  -7.855
REMARK INTRA:                  -0.690
REMARK UNBOUND:                -0.417
REMARK  Name = UMP_6N1S.pdb
REMARK  5 active torsions:
REMARK  status: ('A' for Active; 'I' for Inactive)
REMARK    1  A    between atoms: N1_1  and  C1'_9
REMARK    2  A    between atoms: C3'_11  and  O3'_13
REMARK    3  A    between atoms: C4'_12  and  C5'_15
REMARK    4  A    between atoms: C5'_15  and  O5'_16
REMARK    5  A    between atoms: O5'_16  and  P_17
REMARK                            x       y       z     vdW  Elec       q    Type
REMARK                         _______ _______ _______ _____ _____    ______ ____
ROOT
ATOM      1  C1' UMP A 701      22.807  83.430 -31.508  0.00  0.00    +0.000 C 
ATOM      2  C2' UMP A 701      23.172  82.343 -32.507  0.00  0.00    +0.000 C 
ATOM      3  C3' UMP A 701      24.384  82.971 -33.175  0.00  0.00    +0.000 C 
ATOM      4  C4' UMP A 701      23.958  84.430 -33.288  0.00  0.00    +0.000 C 
ATOM      5  O4' UMP A 701      23.044  84.656 -32.191  0.00  0.00    +0.000 OA
ENDROOT
BRANCH   1   6
ATOM      6  N1  UMP A 701      21.403  83.430 -31.038  0.00  0.00    +0.000 N 
ATOM      7  C2  UMP A 701      21.140  83.947 -29.784  0.00  0.00    +0.000 A 
ATOM      8  N3  UMP A 701      19.816  83.931 -29.422  0.00  0.00    +0.000 N 
ATOM      9  C4  UMP A 701      18.753  83.474 -30.173  0.00  0.00    +0.000 A 
ATOM     10  C5  UMP A 701      19.103  82.963 -31.465  0.00  0.00    +0.000 A 
ATOM     11  C6  UMP A 701      20.389  82.968 -31.848  0.00  0.00    +0.000 A 
ATOM     12  O2  UMP A 701      22.009  84.382 -29.042  0.00  0.00    +0.000 OA
ATOM     13  O4  UMP A 701      17.617  83.537 -29.710  0.00  0.00    +0.000 OA
ATOM     14  H3  UMP A 701      19.596  84.293 -28.505  0.00  0.00    +0.000 HD
ENDBRANCH   1   6
BRANCH   3  15
ATOM     15  O3' UMP A 701      25.540  82.883 -32.350  0.00  0.00    +0.000 OA
ATOM     16 HO3' UMP A 701      25.558  83.627 -31.743  0.00  0.00    +0.000 HD
ENDBRANCH   3  15
BRANCH   4  17
ATOM     17  C5' UMP A 701      23.289  84.798 -34.588  0.00  0.00    +0.000 C 
BRANCH  17  18
ATOM     18  O5' UMP A 701      22.055  85.497 -34.296  0.00  0.00    +0.000 OA
BRANCH  18  19
ATOM     19  P   UMP A 701      21.889  87.015 -34.794  0.00  0.00    +0.000 P 
ATOM     20  OP1 UMP A 701      23.229  87.680 -34.556  0.00  0.00    +0.000 OA
ATOM     21  OP2 UMP A 701      21.529  86.919 -36.262  0.00  0.00    +0.000 OA
ATOM     22  OP3 UMP A 701      20.776  87.600 -33.945  0.00  0.00    +0.000 OA
ENDBRANCH  18  19
ENDBRANCH  17  18
ENDBRANCH   4  17
TORSDOF 5
ENDMDL
MODEL 5
REMARK VINA RESULT:    -6.404      2.066      2.597
REMARK INTER + INTRA:          -8.506
REMARK INTER:                  -7.828
REMARK INTRA:                  -0.678
REMARK UNBOUND:                -0.417
REMARK  Name = UMP_6N1S.pdb
REMARK  5 active torsions:
REMARK  status: ('A' for Active; 'I' for Inactive)
REMARK    1  A    between atoms: N1_1  and  C1'_9
REMARK    2  A    between atoms: C3'_11  and  O3'_13
REMARK    3  A    between atoms: C4'_12  and  C5'_15
REMARK    4  A    between atoms: C5'_15  and  O5'_16
REMARK    5  A    between atoms: O5'_16  and  P_17
REMARK                            x       y       z     vdW  Elec       q    Type
REMARK                         _______ _______ _______ _____ _____    ______ ____
ROOT
ATOM      1  C1' UMP A 701      22.744  84.078 -34.137  0.00  0.00    +0.000 C 
ATOM      2  C2' UMP A 701      22.068  83.538 -32.886  0.00  0.00    +0.000 C 
ATOM      3  C3' UMP A 701      22.246  82.043 -33.093  0.00  0.00    +0.000 C 
ATOM      4  C4' UMP A 701      21.997  81.903 -34.591  0.00  0.00    +0.000 C 
ATOM      5  O4' UMP A 701      22.391  83.167 -35.172  0.00  0.00    +0.000 OA
ENDROOT
BRANCH   1   6
ATOM      6  N1  UMP A 701      22.330  85.436 -34.559  0.00  0.00    +0.000 N 
ATOM      7  C2  UMP A 701      23.227  86.472 -34.375  0.00  0.00    +0.000 A 
ATOM      8  N3  UMP A 701      22.784  87.697 -34.804  0.00  0.00    +0.000 N 
ATOM      9  C4  UMP A 701      21.571  87.983 -35.398  0.00  0.00    +0.000 A 
ATOM     10  C5  UMP A 701      20.701  86.858 -35.565  0.00  0.00    +0.000 A 
ATOM     11  C6  UMP A 701      21.108  85.646 -35.156  0.00  0.00    +0.000 A 
ATOM     12  O2  UMP A 701      24.328  86.323 -33.864  0.00  0.00    +0.000 OA
ATOM     13  O4  UMP A 701      21.326  89.138 -35.739  0.00  0.00    +0.000 OA
ATOM     14  H3  UMP A 701      23.415  88.475 -34.671  0.00  0.00    +0.000 HD
ENDBRANCH   1   6
BRANCH   3  15
ATOM     15  O3' UMP A 701      23.576  81.629 -32.799  0.00  0.00    +0.000 OA
ATOM     16 HO3' UMP A 701      23.910  81.088 -33.518  0.00  0.00    +0.000 HD
ENDBRANCH   3  15
BRANCH   4  17
ATOM     17  C5' UMP A 701      20.572  81.592 -34.971  0.00  0.00    +0.000 C 
BRANCH  17  18
ATOM     18  O5' UMP A 701      19.885  81.063 -33.811  0.00  0.00    +0.000 OA
BRANCH  18  19
ATOM     19  P   UMP A 701      18.548  81.794 -33.304  0.00  0.00    +0.000 P 
ATOM     20  OP1 UMP A 701      17.429  80.790 -33.489  0.00  0.00    +0.000 OA
ATOM     21  OP2 UMP A 701      18.802  82.134 -31.851  0.00  0.00    +0.000 OA
ATOM     22  OP3 UMP A 701      18.399  83.020 -34.185  0.00  0.00    +0.000 OA
ENDBRANCH  18  19
ENDBRANCH  17  18
ENDBRANCH   4  17
TORSDOF 5
ENDMDL
MODEL 6
REMARK VINA RESULT:    -6.394      2.754      4.612
REMARK INTER + INTRA:          -8.493
REMARK INTER:                  -7.674
REMARK INTRA:                  -0.819
REMARK UNBOUND:                -0.417
REMARK  Name = UMP_6N1S.pdb
REMARK  5 active torsions:
REMARK  status: ('A' for Active; 'I' for Inactive)
REMARK    1  A    between atoms: N1_1  and  C1'_9
REMARK    2  A    between atoms: C3'_11  and  O3'_13
REMARK    3  A    between atoms: C4'_12  and  C5'_15
REMARK    4  A    between atoms: C5'_15  and  O5'_16
REMARK    5  A    between atoms: O5'_16  and  P_17
REMARK                            x       y       z     vdW  Elec       q    Type
REMARK                         _______ _______ _______ _____ _____    ______ ____
ROOT
ATOM      1  C1' UMP A 701      22.630  83.730 -33.539  0.00  0.00    +0.000 C 
ATOM      2  C2' UMP A 701      23.316  83.818 -34.893  0.00  0.00    +0.000 C 
ATOM      3  C3' UMP A 701      24.510  84.693 -34.547  0.00  0.00    +0.000 C 
ATOM      4  C4' UMP A 701      23.888  85.707 -33.594  0.00  0.00    +0.000 C 
ATOM      5  O4' UMP A 701      22.784  85.022 -32.961  0.00  0.00    +0.000 OA
ENDROOT
BRANCH   1   6
ATOM      6  N1  UMP A 701      21.185  83.409 -33.567  0.00  0.00    +0.000 N 
ATOM      7  C2  UMP A 701      20.684  82.591 -32.572  0.00  0.00    +0.000 A 
ATOM      8  N3  UMP A 701      19.336  82.350 -32.651  0.00  0.00    +0.000 N 
ATOM      9  C4  UMP A 701      18.455  82.843 -33.592  0.00  0.00    +0.000 A 
ATOM     10  C5  UMP A 701      19.046  83.691 -34.584  0.00  0.00    +0.000 A 
ATOM     11  C6  UMP A 701      20.362  83.947 -34.532  0.00  0.00    +0.000 A 
ATOM     12  O2  UMP A 701      21.379  82.108 -31.689  0.00  0.00    +0.000 OA
ATOM     13  O4  UMP A 701      17.267  82.541 -33.521  0.00  0.00    +0.000 OA
ATOM     14  H3  UMP A 701      18.945  81.745 -31.942  0.00  0.00    +0.000 HD
ENDBRANCH   1   6
BRANCH   3  15
ATOM     15  O3' UMP A 701      25.515  83.957 -33.859  0.00  0.00    +0.000 OA
ATOM     16 HO3' UMP A 701      26.007  84.548 -33.283  0.00  0.00    +0.000 HD
ENDBRANCH   3  15
BRANCH   4  17
ATOM     17  C5' UMP A 701      23.393  86.972 -34.247  0.00  0.00    +0.000 C 
BRANCH  17  18
ATOM     18  O5' UMP A 701      21.958  87.058 -34.066  0.00  0.00    +0.000 OA
BRANCH  18  19
ATOM     19  P   UMP A 701      21.065  87.682 -35.247  0.00  0.00    +0.000 P 
ATOM     20  OP1 UMP A 701      21.255  86.767 -36.439  0.00  0.00    +0.000 OA
ATOM     21  OP2 UMP A 701      19.646  87.682 -34.721  0.00  0.00    +0.000 OA
ATOM     22  OP3 UMP A 701      21.617  89.078 -35.475  0.00  0.00    +0.000 OA
ENDBRANCH  18  19
ENDBRANCH  17  18
ENDBRANCH   4  17
TORSDOF 5
ENDMDL
MODEL 7
REMARK VINA RESULT:    -6.370      2.971      5.333
REMARK INTER + INTRA:          -8.463
REMARK INTER:                  -7.675
REMARK INTRA:                  -0.788
REMARK UNBOUND:                -0.417
REMARK  Name = UMP_6N1S.pdb
REMARK  5 active torsions:
REMARK  status: ('A' for Active; 'I' for Inactive)
REMARK    1  A    between atoms: N1_1  and  C1'_9
REMARK    2  A    between atoms: C3'_11  and  O3'_13
REMARK    3  A    between atoms: C4'_12  and  C5'_15
REMARK    4  A    between atoms: C5'_15  and  O5'_16
REMARK    5  A    between atoms: O5'_16  and  P_17
REMARK                            x       y       z     vdW  Elec       q    Type
REMARK                         _______ _______ _______ _____ _____    ______ ____
ROOT
ATOM      1  C1' UMP A 701      21.020  83.218 -31.224  0.00  0.00    +0.000 C 
ATOM      2  C2' UMP A 701      22.425  83.201 -30.643  0.00  0.00    +0.000 C 
ATOM      3  C3' UMP A 701      22.414  84.495 -29.844  0.00  0.00    +0.000 C 
ATOM      4  C4' UMP A 701      21.651  85.430 -30.774  0.00  0.00    +0.000 C 
ATOM      5  O4' UMP A 701      20.765  84.582 -31.541  0.00  0.00    +0.000 OA
ENDROOT
BRANCH   1   6
ATOM      6  N1  UMP A 701      20.821  82.416 -32.453  0.00  0.00    +0.000 N 
ATOM      7  C2  UMP A 701      19.620  81.747 -32.601  0.00  0.00    +0.000 A 
ATOM      8  N3  UMP A 701      19.498  81.039 -33.770  0.00  0.00    +0.000 N 
ATOM      9  C4  UMP A 701      20.425  80.946 -34.788  0.00  0.00    +0.000 A 
ATOM     10  C5  UMP A 701      21.638  81.675 -34.567  0.00  0.00    +0.000 A 
ATOM     11  C6  UMP A 701      21.786  82.378 -33.434  0.00  0.00    +0.000 A 
ATOM     12  O2  UMP A 701      18.732  81.769 -31.761  0.00  0.00    +0.000 OA
ATOM     13  O4  UMP A 701      20.161  80.276 -35.783  0.00  0.00    +0.000 OA
ATOM     14  H3  UMP A 701      18.635  80.530 -33.900  0.00  0.00    +0.000 HD
ENDBRANCH   1   6
BRANCH   3  15
ATOM     15  O3' UMP A 701      21.690  84.351 -28.627  0.00  0.00    +0.000 OA
ATOM     16 HO3' UMP A 701      21.469  83.426 -28.492  0.00  0.00    +0.000 HD
ENDBRANCH   3  15
BRANCH   4  17
ATOM     17  C5' UMP A 701      22.513  86.239 -31.709  0.00  0.00    +0.000 C 
BRANCH  17  18
ATOM     18  O5' UMP A 701      21.966  86.144 -33.047  0.00  0.00    +0.000 OA
BRANCH  18  19
ATOM     19  P   UMP A 701      22.970  86.204 -34.299  0.00  0.00    +0.000 P 
ATOM     20  OP1 UMP A 701      23.162  87.675 -34.608  0.00  0.00    +0.000 OA
ATOM     21  OP2 UMP A 701      24.241  85.529 -33.829  0.00  0.00    +0.000 OA
ATOM     22  OP3 UMP A 701      22.271  85.449 -35.414  0.00  0.00    +0.000 OA
ENDBRANCH  18  19
ENDBRANCH  17  18
ENDBRANCH   4  17
TORSDOF 5
ENDMDL
MODEL 8
REMARK VINA RESULT:    -6.304      3.011      4.758
REMARK INTER + INTRA:          -8.380
REMARK INTER:                  -7.963
REMARK INTRA:                  -0.417
REMARK UNBOUND:                -0.417
REMARK  Name = UMP_6N1S.pdb
REMARK  5 active torsions:
REMARK  status: ('A' for Active; 'I' for Inactive)
REMARK    1  A    between atoms: N1_1  and  C1'_9
REMARK    2  A    between atoms: C3'_11  and  O3'_13
REMARK    3  A    between atoms: C4'_12  and  C5'_15
REMARK    4  A    between atoms: C5'_15  and  O5'_16
REMARK    5  A    between atoms: O5'_16  and  P_17
REMARK                            x       y       z     vdW  Elec       q    Type
REMARK                         _______ _______ _______ _____ _____    ______ ____
ROOT
ATOM      1  C1' UMP A 701      21.312  83.469 -31.226  0.00  0.00    +0.000 C 
ATOM      2  C2' UMP A 701      20.067  84.315 -31.442  0.00  0.00    +0.000 C 
ATOM      3  C3' UMP A 701      19.018  83.449 -30.762  0.00  0.00    +0.000 C 
ATOM      4  C4' UMP A 701      19.448  82.049 -31.184  0.00  0.00    +0.000 C 
ATOM      5  O4' UMP A 701      20.878  82.123 -31.383  0.00  0.00    +0.000 OA
ENDROOT
BRANCH   1   6
ATOM      6  N1  UMP A 701      22.425  83.707 -32.173  0.00  0.00    +0.000 N 
ATOM      7  C2  UMP A 701      23.305  84.735 -31.893  0.00  0.00    +0.000 A 
ATOM      8  N3  UMP A 701      24.321  84.886 -32.803  0.00  0.00    +0.000 N 
ATOM      9  C4  UMP A 701      24.549  84.124 -33.930  0.00  0.00    +0.000 A 
ATOM     10  C5  UMP A 701      23.603  83.071 -34.148  0.00  0.00    +0.000 A 
ATOM     11  C6  UMP A 701      22.599  82.897 -33.273  0.00  0.00    +0.000 A 
ATOM     12  O2  UMP A 701      23.194  85.465 -30.918  0.00  0.00    +0.000 OA
ATOM     13  O4  UMP A 701      25.515  84.380 -34.644  0.00  0.00    +0.000 OA
ATOM     14  H3  UMP A 701      24.972  85.639 -32.629  0.00  0.00    +0.000 HD
ENDBRANCH   1   6
BRANCH   3  15
ATOM     15  O3' UMP A 701      19.092  83.555 -29.345  0.00  0.00    +0.000 OA
ATOM     16 HO3' UMP A 701      19.893  84.024 -29.099  0.00  0.00    +0.000 HD
ENDBRANCH   3  15
BRANCH   4  17
ATOM     17  C5' UMP A 701      18.788  81.531 -32.436  0.00  0.00    +0.000 C 
BRANCH  17  18
ATOM     18  O5' UMP A 701      18.286  80.197 -32.180  0.00  0.00    +0.000 OA
BRANCH  18  19
ATOM     19  P   UMP A 701      17.425  79.463 -33.320  0.00  0.00    +0.000 P 
ATOM     20  OP1 UMP A 701      16.443  80.497 -33.832  0.00  0.00    +0.000 OA
ATOM     21  OP2 UMP A 701      18.429  79.032 -34.368  0.00  0.00    +0.000 OA
ATOM     22  OP3 UMP A 701      16.749  78.294 -32.626  0.00  0.00    +0.000 OA
ENDBRANCH  18  19
ENDBRANCH  17  18
ENDBRANCH   4  17
TORSDOF 5
ENDMDL
MODEL 9
REMARK VINA RESULT:    -6.271      2.332      4.410
REMARK INTER + INTRA:          -8.338
REMARK INTER:                  -7.578
REMARK INTRA:                  -0.760
REMARK UNBOUND:                -0.417
REMARK  Name = UMP_6N1S.pdb
REMARK  5 active torsions:
REMARK  status: ('A' for Active; 'I' for Inactive)
REMARK    1  A    between atoms: N1_1  and  C1'_9
REMARK    2  A    between atoms: C3'_11  and  O3'_13
REMARK    3  A    between atoms: C4'_12  and  C5'_15
REMARK    4  A    between atoms: C5'_15  and  O5'_16
REMARK    5  A    between atoms: O5'_16  and  P_17
REMARK                            x       y       z     vdW  Elec       q    Type
REMARK                         _______ _______ _______ _____ _____    ______ ____
ROOT
ATOM      1  C1' UMP A 701      21.831  84.043 -31.562  0.00  0.00    +0.000 C 
ATOM      2  C2' UMP A 701      20.627  84.909 -31.897  0.00  0.00    +0.000 C 
ATOM      3  C3' UMP A 701      19.525  84.146 -31.181  0.00  0.00    +0.000 C 
ATOM      4  C4' UMP A 701      19.914  82.699 -31.458  0.00  0.00    +0.000 C 
ATOM      5  O4' UMP A 701      21.352  82.704 -31.612  0.00  0.00    +0.000 OA
ENDROOT
BRANCH   1   6
ATOM      6  N1  UMP A 701      22.983  84.154 -32.486  0.00  0.00    +0.000 N 
ATOM      7  C2  UMP A 701      24.146  83.483 -32.154  0.00  0.00    +0.000 A 
ATOM      8  N3  UMP A 701      25.164  83.616 -33.064  0.00  0.00    +0.000 N 
ATOM      9  C4  UMP A 701      25.136  84.321 -34.249  0.00  0.00    +0.000 A 
ATOM     10  C5  UMP A 701      23.895  84.979 -34.529  0.00  0.00    +0.000 A 
ATOM     11  C6  UMP A 701      22.879  84.866 -33.659  0.00  0.00    +0.000 A 
ATOM     12  O2  UMP A 701      24.272  82.826 -31.130  0.00  0.00    +0.000 OA
ATOM     13  O4  UMP A 701      26.134  84.335 -34.966  0.00  0.00    +0.000 OA
ATOM     14  H3  UMP A 701      26.031  83.146 -32.841  0.00  0.00    +0.000 HD
ENDBRANCH   1   6
BRANCH   3  15
ATOM     15  O3' UMP A 701      19.556  84.379 -29.777  0.00  0.00    +0.000 OA
ATOM     16 HO3' UMP A 701      20.444  84.225 -29.446  0.00  0.00    +0.000 HD
ENDBRANCH   3  15
BRANCH   4  17
ATOM     17  C5' UMP A 701      19.275  82.093 -32.682  0.00  0.00    +0.000 C 
BRANCH  17  18
ATOM     18  O5' UMP A 701      20.246  81.243 -33.341  0.00  0.00    +0.000 OA
BRANCH  18  19
ATOM     19  P   UMP A 701      20.779  81.662 -34.797  0.00  0.00    +0.000 P 
ATOM     20  OP1 UMP A 701      20.192  80.653 -35.761  0.00  0.00    +0.000 OA
ATOM     21  OP2 UMP A 701      20.262  83.067 -35.025  0.00  0.00    +0.000 OA
ATOM     22  OP3 UMP A 701      22.292  81.591 -34.709  0.00  0.00    +0.000 OA
ENDBRANCH  18  19
ENDBRANCH  17  18
ENDBRANCH   4  17
TORSDOF 5
ENDMDL
