REMARK  12 active torsions:
REMARK  status: ('A' for Active; 'I' for Inactive)
REMARK    1  A    between atoms: C_1  and  C_2 
REMARK    2  A    between atoms: C_1  and  O_32 
REMARK    3  A    between atoms: C_2  and  C_3 
REMARK    4  A    between atoms: C_3  and  C_4 
REMARK    5  A    between atoms: C_4  and  C_5 
REMARK    6  A    between atoms: C_4  and  N_8 
REMARK    7  A    between atoms: C_5  and  O_7 
REMARK       I    between atoms: N_8  and  C_9 
REMARK    8  A    between atoms: C_9  and  C_11 
REMARK    9  A    between atoms: C_16  and  N_17 
REMARK   10  A    between atoms: N_17  and  C_18 
REMARK   11  A    between atoms: C_18  and  C_19 
REMARK   12  A    between atoms: C_25  and  N_26 
ROOT
HETATM    1  C           1       8.126   0.647   3.377  0.00  0.00     0.139 C 
HETATM    2  O           1       7.396   1.239   4.135  0.00  0.00    -0.650 OA
ENDROOT
BRANCH   1   3
HETATM    3  C           1       7.730  -0.086   2.107  0.00  0.00     0.112 C 
BRANCH   3   4
HETATM    4  C           1       6.302   0.242   1.637  0.00  0.00     0.046 C 
BRANCH   4   5
HETATM    5  C           1       5.855  -0.521   0.375  0.00  0.00     0.183 C 
BRANCH   5   6
HETATM    6  C           1       6.499  -0.153  -0.960  0.00  0.00     0.163 C 
HETATM    7  O           1       6.247  -0.693  -2.011  0.00  0.00    -0.648 OA
BRANCH   6   8
HETATM    8  O           1       7.376   0.865  -0.879  0.00  0.00    -0.775 OA
HETATM    9  H           1       7.647   1.114  -1.777  0.00  0.00     0.167 HD
ENDBRANCH   6   8
ENDBRANCH   5   6
BRANCH   5  10
HETATM   10  N           1       4.388  -0.536   0.254  0.00  0.00    -0.343 N 
HETATM   11  C           1       3.671   0.557  -0.152  0.00  0.00     0.252 C 
HETATM   12  O           1       4.256   1.564  -0.474  0.00  0.00    -0.268 OA
HETATM   13  H           1       3.892  -1.378   0.532  0.00  0.00     0.163 HD
BRANCH  11  14
HETATM   14  C           1       2.312   0.423  -0.168  0.00  0.00     0.032 A 
HETATM   15  C           1       1.538   1.453  -0.562  0.00  0.00     0.019 A 
HETATM   16  C           1       0.200   1.355  -0.588  0.00  0.00     0.030 A 
HETATM   17  C           1      -0.418   0.219  -0.221  0.00  0.00     0.028 A 
HETATM   18  C           1       0.346  -0.813   0.173  0.00  0.00     0.030 A 
HETATM   19  C           1       1.686  -0.713   0.199  0.00  0.00     0.019 A 
BRANCH  17  20
HETATM   20  N           1      -1.688   0.196  -0.270  0.00  0.00    -0.384 N 
HETATM   21  H           1      -2.151   1.080  -0.599  0.00  0.00     0.160 HD
BRANCH  20  22
HETATM   22  C           1      -2.564  -0.938   0.085  0.00  0.00     0.180 C 
BRANCH  22  23
HETATM   23  C           1      -3.997  -0.507  -0.103  0.00  0.00     0.070 A 
HETATM   24  C           1      -4.511   0.593   0.467  0.00  0.00     0.147 A 
HETATM   25  N           1      -5.713   0.943   0.296  0.00  0.00    -0.237 NA
HETATM   26  C           1      -6.448   0.220  -0.444  0.00  0.00     0.202 A 
HETATM   27  C           1      -5.940  -0.892  -1.023  0.00  0.00     0.174 A 
HETATM   28  N           1      -7.650   0.599  -0.597  0.00  0.00    -0.043 NA
HETATM   29  N           1      -4.731  -1.228  -0.838  0.00  0.00    -0.241 NA
HETATM   30  C           1      -6.742  -1.659  -1.813  0.00  0.00     0.292 A 
HETATM   31  O           1      -6.443  -2.674  -2.395  0.00  0.00    -0.265 OA
HETATM   32  N           1      -8.002  -1.175  -1.916  0.00  0.00    -0.152 N 
HETATM   33  C           1      -8.453  -0.060  -1.317  0.00  0.00     0.703 A 
HETATM   34  H           1      -8.676  -1.666  -2.478  0.00  0.00     0.187 HD
BRANCH  33  35
HETATM   35  N           1      -9.663   0.249  -1.520  0.00  0.00    -0.233 N 
HETATM   36  H           1     -10.281  -0.341  -2.129  0.00  0.00     0.174 HD
HETATM   37  H           1     -10.066   1.110  -1.075  0.00  0.00     0.174 HD
ENDBRANCH  33  35
ENDBRANCH  22  23
ENDBRANCH  20  22
ENDBRANCH  17  20
ENDBRANCH  11  14
ENDBRANCH   5  10
ENDBRANCH   4   5
ENDBRANCH   3   4
ENDBRANCH   1   3
BRANCH   1  38
HETATM   38  O           1       9.454   0.565   3.597  0.00  0.00    -0.776 OA
HETATM   39  H           1       9.659   1.048   4.414  0.00  0.00     0.167 HD
ENDBRANCH   1  38
TORSDOF 12
